Accel-Sim [build accelsim-commit-117f9dca3f46b1d85d2a1ec9ddac6b89d49399b3_modified_2.0]

        *** GPGPU-Sim Simulator Version 4.2.0  [build gpgpu-sim_git-commit-117f9dca3f46b1d85d2a1ec9ddac6b89d49399b3_modified_2.0] ***


GPGPU-Sim: Configuration options:

-save_embedded_ptx                      0 # saves ptx files embedded in binary as <n>.ptx
-keep                                   0 # keep intermediate files created by GPGPU-Sim when interfacing with external programs
-gpgpu_ptx_save_converted_ptxplus                    0 # Saved converted ptxplus to a file
-gpgpu_occupancy_sm_number                  120 # The SM number to pass to ptxas when getting register usage for computing GPU occupancy. This parameter is required in the config.
-ptx_opcode_latency_int           4,4,4,4,21 # Opcode latencies for integers <ADD,MAX,MUL,MAD,DIV,SHFL>Default 1,1,19,25,145,32
-ptx_opcode_latency_fp           4,4,4,4,39 # Opcode latencies for single precision floating points <ADD,MAX,MUL,MAD,DIV>Default 1,1,1,1,30
-ptx_opcode_latency_dp      64,64,64,64,330 # Opcode latencies for double precision floating points <ADD,MAX,MUL,MAD,DIV>Default 8,8,8,8,335
-ptx_opcode_latency_sfu                   21 # Opcode latencies for SFU instructionsDefault 8
-ptx_opcode_latency_tesnor                   64 # Opcode latencies for Tensor instructionsDefault 64
-ptx_opcode_initiation_int            2,2,2,2,2 # Opcode initiation intervals for integers <ADD,MAX,MUL,MAD,DIV,SHFL>Default 1,1,4,4,32,4
-ptx_opcode_initiation_fp            2,2,2,2,2 # Opcode initiation intervals for single precision floating points <ADD,MAX,MUL,MAD,DIV>Default 1,1,1,1,5
-ptx_opcode_initiation_dp      64,64,64,64,130 # Opcode initiation intervals for double precision floating points <ADD,MAX,MUL,MAD,DIV>Default 8,8,8,8,130
-ptx_opcode_initiation_sfu                    8 # Opcode initiation intervals for sfu instructionsDefault 8
-ptx_opcode_initiation_tensor                   64 # Opcode initiation intervals for tensor instructionsDefault 64
-cdp_latency         7200,8000,100,12000,1600 # CDP API latency <cudaStreamCreateWithFlags, cudaGetParameterBufferV2_init_perWarp, cudaGetParameterBufferV2_perKernel, cudaLaunchDeviceV2_init_perWarp, cudaLaunchDevicV2_perKernel>Default 7200,8000,100,12000,1600
-network_mode                           2 # Interconnection network mode
-inter_config_file                   mesh # Interconnection network config file
-icnt_in_buffer_limit                  512 # in_buffer_limit
-icnt_out_buffer_limit                  512 # out_buffer_limit
-icnt_subnets                           2 # subnets
-icnt_arbiter_algo                      1 # arbiter_algo
-icnt_verbose                           0 # inct_verbose
-icnt_grant_cycles                      1 # grant_cycles
-gpgpu_ptx_use_cuobjdump                    1 # Use cuobjdump to extract ptx and sass from binaries
-gpgpu_experimental_lib_support                    0 # Try to extract code from cuda libraries [Broken because of unknown cudaGetExportTable]
-checkpoint_option                      0 #  checkpointing flag (0 = no checkpoint)
-checkpoint_kernel                      1 #  checkpointing during execution of which kernel (1- 1st kernel)
-checkpoint_CTA                         0 #  checkpointing after # of CTA (< less than total CTA)
-resume_option                          0 #  resume flag (0 = no resume)
-resume_kernel                          0 #  Resume from which kernel (1= 1st kernel)
-resume_CTA                             0 #  resume from which CTA 
-checkpoint_CTA_t                       0 #  resume from which CTA 
-checkpoint_insn_Y                      0 #  resume from which CTA 
-gpgpu_ptx_convert_to_ptxplus                    0 # Convert SASS (native ISA) to ptxplus and run ptxplus
-gpgpu_ptx_force_max_capability                  120 # Force maximum compute capability
-gpgpu_ptx_inst_debug_to_file                    0 # Dump executed instructions' debug information to file
-gpgpu_ptx_inst_debug_file       inst_debug.txt # Executed instructions' debug output file
-gpgpu_ptx_inst_debug_thread_uid                    1 # Thread UID for executed instructions' debug output
-gpgpu_simd_model                       1 # 1 = post-dominator
-gpgpu_shader_core_pipeline              1536:32 # shader core pipeline config, i.e., {<nthread>:<warpsize>}
-gpgpu_tex_cache:l1  N:4:128:256,L:R:m:N:L,T:512:8,128:2 # per-shader L1 texture cache  (READ-ONLY) config  {<nsets>:<bsize>:<assoc>,<rep>:<wr>:<alloc>:<wr_alloc>,<mshr>:<N>:<merge>,<mq>:<rf>}
-gpgpu_const_cache:l1 N:4:64:8,L:R:f:N:L,S:32:32,32 # per-shader L1 constant memory cache  (READ-ONLY) config  {<nsets>:<bsize>:<assoc>,<rep>:<wr>:<alloc>:<wr_alloc>,<mshr>:<N>:<merge>,<mq>} 
-gpgpu_cache:il1     N:64:128:16,L:R:f:N:L,S:32:32,32 # shader L1 instruction cache config  {<nsets>:<bsize>:<assoc>,<rep>:<wr>:<alloc>:<wr_alloc>,<mshr>:<N>:<merge>,<mq>} 
-gpgpu_cache:il0     N:8:128:32,L:R:f:N:L,S:32:16,8 # shader L0 instruction cache config  {<nsets>:<bsize>:<assoc>,<rep>:<wr>:<alloc>:<wr_alloc>,<mshr>:<N>:<merge>,<mq>} 
-gpgpu_cache:dl1     S:4:128:256,L:T:m:L:L,A:384:48,32:0,32 # per-shader L1 data cache config  {<nsets>:<bsize>:<assoc>,<rep>:<wr>:<alloc>:<wr_alloc>,<mshr>:<N>:<merge>,<mq> | none}
-gpgpu_l1_cache_write_ratio                    0 # L1D write ratio
-gpgpu_l1_banks                         4 # The number of L1 cache banks
-gpgpu_l1_banks_byte_interleaving                   32 # l1 banks byte interleaving granularity
-gpgpu_l1_banks_hashing_function                    0 # l1 banks hashing function
-gpgpu_l1_latency                       1 # L1 Hit Latency
-gpgpu_smem_latency                     3 # smem Latency
-gpgpu_cache:dl1PrefL1                 none # per-shader L1 data cache config  {<nsets>:<bsize>:<assoc>,<rep>:<wr>:<alloc>:<wr_alloc>,<mshr>:<N>:<merge>,<mq> | none}
-gpgpu_cache:dl1PrefShared                 none # per-shader L1 data cache config  {<nsets>:<bsize>:<assoc>,<rep>:<wr>:<alloc>:<wr_alloc>,<mshr>:<N>:<merge>,<mq> | none}
-gpgpu_gmem_skip_L1D                    0 # global memory access skip L1D cache (implements -Xptxas -dlcm=cg, default=no skip)
-gpgpu_perfect_mem                      0 # enable perfect memory mode (no cache miss)
-n_regfile_gating_group                    4 # group of lanes that should be read/written together)
-gpgpu_clock_gated_reg_file                    0 # enable clock gated reg file for power calculations
-gpgpu_clock_gated_lanes                    0 # enable clock gated lanes for power calculations
-gpgpu_shader_registers                65536 # Number of registers per shader core. Limits number of concurrent CTAs. (default 8192)
-gpgpu_registers_per_block                65536 # Maximum number of registers per CTA. (default 8192)
-gpgpu_ignore_resources_limitation                    0 # gpgpu_ignore_resources_limitation (default 0)
-gpgpu_shader_cta                      32 # Maximum number of concurrent CTAs in shader (default 32)
-gpgpu_num_cta_barriers                   16 # Maximum number of named barriers per CTA (default 16)
-gpgpu_n_clusters                      70 # number of processing clusters
-gpgpu_n_cores_per_cluster                    1 # number of simd cores per cluster
-gpgpu_n_cluster_ejection_buffer_size                   32 # number of packets in ejection buffer
-gpgpu_n_ldst_response_buffer_size                    2 # number of response packets in ld/st unit ejection buffer
-gpgpu_shmem_per_block                49152 # Size of shared memory per thread block or CTA (default 48kB)
-gpgpu_shmem_size                  102400 # Size of shared memory per shader core (default 16kB)
-gpgpu_shmem_option      0,8,16,32,64,100 # Option list of shared memory sizes
-gpgpu_unified_l1d_size                  128 # Size of unified data cache(L1D + shared memory) in KB
-gpgpu_adaptive_cache_config                    1 # adaptive_cache_config
-gpgpu_shmem_sizeDefault               102400 # Size of shared memory per shader core (default 16kB)
-gpgpu_shmem_size_PrefL1                16384 # Size of shared memory per shader core (default 16kB)
-gpgpu_shmem_size_PrefShared                16384 # Size of shared memory per shader core (default 16kB)
-gpgpu_shmem_num_banks                   32 # Number of banks in the shared memory in each shader core (default 16)
-gpgpu_shmem_limited_broadcast                    0 # Limit shared memory to do one broadcast per cycle (default on)
-gpgpu_shmem_warp_parts                    1 # Number of portions a warp is divided into for shared memory bank conflict check 
-gpgpu_mem_unit_ports                    1 # The number of memory transactions allowed per core cycle
-gpgpu_shmem_warp_parts                    1 # Number of portions a warp is divided into for shared memory bank conflict check 
-gpgpu_warpdistro_shader                   -1 # Specify which shader core to collect the warp size distribution from
-gpgpu_warp_issue_shader                    0 # Specify which shader core to collect the warp issue distribution from
-gpgpu_local_mem_map                    1 # Mapping from local memory space address to simulated GPU physical address space (default = enabled)
-gpgpu_num_reg_banks                    8 # Number of register banks (default = 8)
-gpgpu_reg_bank_use_warp_id                    0 # Use warp ID in mapping registers to banks (default = off)
-gpgpu_sub_core_model                    1 # Sub Core Volta/Pascal model (default = off)
-gpgpu_enable_specialized_operand_collector                    0 # enable_specialized_operand_collector
-gpgpu_operand_collector_num_units_sp                    4 # number of collector units (default = 4)
-gpgpu_operand_collector_num_units_dp                    0 # number of collector units (default = 0)
-gpgpu_operand_collector_num_units_sfu                    4 # number of collector units (default = 4)
-gpgpu_operand_collector_num_units_int                    0 # number of collector units (default = 0)
-gpgpu_operand_collector_num_units_tensor_core                    4 # number of collector units (default = 4)
-gpgpu_operand_collector_num_units_mem                    2 # number of collector units (default = 2)
-gpgpu_operand_collector_num_units_gen                    8 # number of collector units (default = 0)
-gpgpu_operand_collector_num_in_ports_sp                    1 # number of collector unit in ports (default = 1)
-gpgpu_operand_collector_num_in_ports_dp                    0 # number of collector unit in ports (default = 0)
-gpgpu_operand_collector_num_in_ports_sfu                    1 # number of collector unit in ports (default = 1)
-gpgpu_operand_collector_num_in_ports_int                    0 # number of collector unit in ports (default = 0)
-gpgpu_operand_collector_num_in_ports_tensor_core                    1 # number of collector unit in ports (default = 1)
-gpgpu_operand_collector_num_in_ports_mem                    1 # number of collector unit in ports (default = 1)
-gpgpu_operand_collector_num_in_ports_gen                    8 # number of collector unit in ports (default = 0)
-gpgpu_operand_collector_num_out_ports_sp                    1 # number of collector unit in ports (default = 1)
-gpgpu_operand_collector_num_out_ports_dp                    0 # number of collector unit in ports (default = 0)
-gpgpu_operand_collector_num_out_ports_sfu                    1 # number of collector unit in ports (default = 1)
-gpgpu_operand_collector_num_out_ports_int                    0 # number of collector unit in ports (default = 0)
-gpgpu_operand_collector_num_out_ports_tensor_core                    1 # number of collector unit in ports (default = 1)
-gpgpu_operand_collector_num_out_ports_mem                    1 # number of collector unit in ports (default = 1)
-gpgpu_operand_collector_num_out_ports_gen                    8 # number of collector unit in ports (default = 0)
-gpgpu_coalesce_arch                  120 # Coalescing arch (GT200 = 13, Fermi = 20)
-gpgpu_num_sched_per_core                    4 # Number of warp schedulers per core
-gpgpu_max_insn_issue_per_warp                    1 # Max number of instructions that can be issued per warp in one cycle by scheduler (either 1 or 2)
-gpgpu_dual_issue_diff_exec_units                    1 # should dual issue use two different execution unit resources (Default = 1)
-gpgpu_simt_core_sim_order                    1 # Select the simulation order of cores in a cluster (0=Fix, 1=Round-Robin)
-gpgpu_pipeline_widths 4,4,4,4,4,4,4,4,4,4,8,4,4 # Pipeline widths ID_OC_SP,ID_OC_DP,ID_OC_INT,ID_OC_SFU,ID_OC_MEM,OC_EX_SP,OC_EX_DP,OC_EX_INT,OC_EX_SFU,OC_EX_MEM,EX_WB,ID_OC_TENSOR_CORE,OC_EX_TENSOR_CORE
-gpgpu_tensor_core_avail                    1 # Tensor Core Available (default=0)
-gpgpu_num_sp_units                     4 # Number of SP units (default=1)
-gpgpu_num_dp_units                     0 # Number of DP units (default=0)
-gpgpu_num_int_units                    4 # Number of INT units (default=0)
-gpgpu_num_sfu_units                    4 # Number of SF units (default=1)
-gpgpu_num_tensor_core_units                    4 # Number of tensor_core units (default=1)
-gpgpu_num_mem_units                    1 # Number if ldst units (default=1) WARNING: not hooked up to anything
-gpgpu_scheduler                      gto # Scheduler configuration: < lrr | gto | two_level_active > If two_level_active:<num_active_warps>:<inner_prioritization>:<outer_prioritization>For complete list of prioritization values see shader.h enum scheduler_prioritization_typeDefault: gto
-gpgpu_concurrent_kernel_sm                    0 # Support concurrent kernels on a SM (default = disabled)
-gpgpu_perfect_inst_const_cache                    0 # perfect inst and const cache mode, so all inst and const hits in the cache(default = disabled)
-gpgpu_inst_fetch_throughput                    4 # the number of fetched intruction per warp each cycle
-gpgpu_reg_file_port_throughput                    2 # the number ports of the register file
-specialized_unit_1         0,4,4,4,4,BRA # specialized unit config {<enabled>,<num_units>:<latency>:<initiation>,<ID_OC_SPEC>:<OC_EX_SPEC>,<NAME>}
-specialized_unit_2       1,4,200,4,4,TEX # specialized unit config {<enabled>,<num_units>:<latency>:<initiation>,<ID_OC_SPEC>:<OC_EX_SPEC>,<NAME>}
-specialized_unit_3         0,4,4,4,4,BRA # specialized unit config {<enabled>,<num_units>:<latency>:<initiation>,<ID_OC_SPEC>:<OC_EX_SPEC>,<NAME>}
-specialized_unit_4         0,4,4,4,4,BRA # specialized unit config {<enabled>,<num_units>:<latency>:<initiation>,<ID_OC_SPEC>:<OC_EX_SPEC>,<NAME>}
-specialized_unit_5         0,4,4,4,4,BRA # specialized unit config {<enabled>,<num_units>:<latency>:<initiation>,<ID_OC_SPEC>:<OC_EX_SPEC>,<NAME>}
-specialized_unit_6         0,4,4,4,4,BRA # specialized unit config {<enabled>,<num_units>:<latency>:<initiation>,<ID_OC_SPEC>:<OC_EX_SPEC>,<NAME>}
-specialized_unit_7         0,4,4,4,4,BRA # specialized unit config {<enabled>,<num_units>:<latency>:<initiation>,<ID_OC_SPEC>:<OC_EX_SPEC>,<NAME>}
-specialized_unit_8         0,4,4,4,4,BRA # specialized unit config {<enabled>,<num_units>:<latency>:<initiation>,<ID_OC_SPEC>:<OC_EX_SPEC>,<NAME>}
-is_trace_predication_enabled                    0 # If enabled, the predication information of the traces is read and treated as regular registers beggining with the identifier 257 (264 in execution for PT which is P7 in traces).(default = disabled)
-scoreboard_war_mode                  opc # Scoreboard war mode: < disabled | wb | opc > It enables a scoreboard_reads to solve potential WAR issues due to operand collector OoO issue.wb: releases source register when the instruction is at WB stage.opc: releases source register when the instruction leaves the operand collector stageDefault: opc
-scoreboard_war_max_uses_per_reg                 9999 # Number of maximum uses per register allowed in the scoreboard_reads in order to prevent WAR hazards in the baseline. (default=9999)
-scoreboard_war_static_power                    0 # Static power consumption of each scoreboard war that has more than one bit.Configure to any positive number (default=0)
-scoreboard_war_dynamic_power                    0 # Dynamic power consumption of each scoreboard war that has more than one bitr.Configure to any positive number (default=0)
-is_fix_memory_reordering_enabled_baseline                    0 # If enabled, the baseline fixes loads after issuing a store. The warp won't be allowed to issue loads until the store reaches WB.Fix loads after store (default = disabled)
-is_fetch_and_decode_improved                    1 # If enabled, the fetch and decode stages are separeted for each sub-core and gpgpu_inst_fetch_throughput is disabled.Fix the stages fetch and decode (default = disabled)
-is_L0I_enabled                         1 # If enabled, each sub-core has its own L0I. Only works if is_fetch_and_decode_improved is enabled too.Adds a L0I to each sub-core (default = disabled)
-max_request_allowed_to_L1I                    1 # Number of maximum request allowed to L1I in a given cycle. Also known as maximum number of ports for requestsConfigure to any positive number (default=1)
-max_reply_allowed_from_L1I                    1 # Number of maximum reply allowed from L1I in a given cycle. Also known as maximum number of ports for repliesConfigure to any positive number (default=1)
-latency_L0_to_L1                      39 # Latency of requests from L0 and L1. L1 if it is instruction cahce, L1.5 constant cache.Configure to any positive number (default=40)
-latency_L1_to_L0                      39 # Latency of replies from L1 to L0. L1 if it is instruction cahce, L1.5 constant cache..Configure to any positive number (default=40)
-is_fix_instruction_fetch_misalignment                    0 # If enabled, instructions that are stored in different blocks of the Instruction cache won't be decoded and placed in the Instruction Buffer in the same fetch request. Only works if is_fetch_and_decode_improved is enabled too.Fix misaligment when fetching instructions (default = disabled)
-is_fix_different_kernels_pc_addresses                    0 # If enabled, instruction addresses of different kernels to have a different address request in memory. It is mandatory to enable -is_fetch_and_decode_improved too.Fix instruction pc addresses requests (default = disabled)
-is_fix_not_decoding_not_contiguos_instructions                    0 # If enabled, instructions with a separated PC are prevented from being decoding because it is impossible that have been fetch in the same request. It is mandatory to enable -is_fetch_and_decode_improved too.Fix instruction decodign when the following PC is far from the previous PC (default = disabled)
-is_improved_ldst_unit_enabled                    0 # If enabled, the modeling of LDST_Unit is improved. Supporting to dispatch instructions and do different actions from different sub-cores.Improves the modeling of the LDST_Unit (default = disabled)
-is_improved_result_bus                    0 # If enabled, the modeling of result bus is improved. It takes into account the number of ports in each RF bank to do not schedule instructions that are going to finish in the same cycle for more than the ports that are in that RF bank.Improves the modeling of the result bus (default = disabled)
-is_opc_improved                        0 # If enabled, the OPC stage does not used the gpgpu_reg_file_port_throughput to make a loop of the OPC and recreates OPC stage more faithfully.gpgpu_reg_file_port_throughput will be used as the number of ports for each register file bank.Fix the OPC stage (default = disabled)
-cu_num_ports                           2 # Number of ports for each Collector Unit when they read operands from the Register File. Only enabled if is_opc_improved is enabled.Configure to any positive number (default=2)
-is_skip_rf_limit_enabled                    0 # If enabled, the limitation of registers for a RF is not done.Skips checking the limitation of registers for a CTA (default = disabled)
-is_relax_barriers_baseline                    0 # If enabled, after a barrier only memory operations will stall a warp when this is waiting in a barrier (default = disabled)
-is_extended_ibuffer_enabled                    0 # If enabled, the extended buffer is used. Also if LOOG is enabled.(default = disabled)
-extended_ibuffer_size                    8 # Size of the extended Instruction Buffer. If LOOG is enabled, loog_frontend_size is used instead of this variable.Configure to any positive number (default=8)
-fetch_decode_width                     1 # Size of the fetch and decode width. Cannot be bigger than extended_ibuffer_size or ibuffer_remodeled_size. If LOOG is enabled, loog_frontend_size is used instead of this variable.Configure to any positive number (default=2)
-extended_ibuffer_static_power                    0 # Static power consumption of each Extended Ibuffer.Configure to any positive number (default=0)
-extended_ibuffer_dynamic_power                    0 # Dynamic power consumption of each Extended Ibuffer.Configure to any positive number (default=0)
-vpreg_mode                      disabled # Virtual Physical Registers mode: < disabled | reissue | reissue_informed > It enables a VPREG improvement in order to use renaming and reduce the size of register file. It also needs that -ibuffer_ooo_mode is set to wb.reissue: In case of not having free physical registers at WB, the bits is_issued and is_reissued of the instruction in IBuffer_ooo are set to 1 and the instruction will be reissued.reissue_informed: It works equally to reissue mode. However, the SOCGPU module knows and prevents to select instructions that are not the oldest when there aren't free physical registers.disabled: The improvement is disabled.Default: disabled
-vpreg_num_virtual_regs_per_sm                 2052 # Number of virtual register inside each SM. Later on this number will be divided in 4 to assign equally to each sub-core. Recommended to be a power of 2It is only used if vpreg is enabled. It should be bigger than the number of physical + maximum of destination registers allowed in an instruction.Configure to any number (default=2052)
-vpreg_num_physical_regs_per_sm                 2048 # Number of physical register inside each SM. Later on this number will be divided in 4 to assign equally to each sub-core. Recommended to be a power of 2It is only used if vpreg is enabled.Configure to any positive number (default=2048)
-vpreg_balanced_banks_mode                    0 # If enabled, the allocation of physical registers will be balanced across the different banks.Virtual physical registers balanced banks mode (default = disabled)
-vpreg_reissue_informed_socgpu_threshold                    0 # Number of physical registers that when it reaches this number or less than this number, only warps with the oldest instruction ready will be consider to be issued .It is only used if vpreg is set to reissue_informed. It should be greater or equal than 0. This number will be for each sub-core free pool.Configure to any number greater or equal than 0 (default=0)
-vpreg_max_rollback_entries_done_in_a_cycle                    0 # Number of maximum entries that can do a rollback from the Instruction Buffer to the decode VMT in a cycle. Until the rollback is finished, the decode for that warp is stalled.If is set to 0 is treated like an ideal scenario where all the entries of the Instruction Bufffer do the rollback the same cycle as the flush is detected. Therefore, there isn't any stall. If it is configured equal to the size of the Instruction Buffer, it will have only one cycle stall.Configure to any number greater or equal than 0 and smaller or equal than the size of the Instruction Buffer(default=0)
-is_vpreg_predicated_war_waw_dependencies_ignored                    0 # If enabled, the war and waw hazards because there is a predication register involded are ignored (default = disabled)
-is_vpreg_predicated_dest_reg_dependencies_ignored                    0 # If enabled, the dependencies when two instructions have the same logical destination register and different predication is ignored (default = disabled)
-vpreg_merge_module_static_power                    0 # Static power consumption of each VPREG merge module.Configure to any positive number (default=0)
-vpreg_merge_module_dynamic_power                    0 # Dynamic power consumption of each VPREG merge module.Configure to any positive number (default=0)
-vpreg_collector_unit_extra_static_power                    0 # Static power consumption of each collector unit module.Configure to any positive number (default=0)
-vpreg_collector_unit_extra_dynamic_power                    0 # Dynamic power consumption of each collector unit module.Configure to any positive number (default=0)
-is_SM_remodeling_enabled                    1 # If enabled, the simulator will use a more accurate model for the SMs based on NVIDIA Volta/Turing/Ampere.is_SM_remodeling_enabled (default = disabled)
-num_subcores_in_SM                     4 # Configures the number of subcores in the SM. Usually 4 in the latests NVIDIA architectures since Volta.num_subcores_in_SM (default = 4)
-is_remodeling_scoreboarding_enabled                    0 # If enabled, the simulator will use scoreboards in the accurate model for the SMs based on NVIDIA Volta/Turing/Ampere. Otherwise, it will use the model based on hints in the control bits written by the compiler. If it uses PTX mode, Scoreboards will be also enabled due to the imposibility of using the control bits. is_remodeling_scoreboarding_enabled (default = disabled)
-is_ibuffer_remodeled_enabled                    1 # If enabled, the extended buffer is used. Also if LOOG is enabled.(default = disabled)
-ibuffer_remodeled_size                    3 # Size of the extended Instruction Buffer. If LOOG is enabled, loog_frontend_size is used instead of this variable.Configure to any positive number (default=3)
-num_wait_barriers_per_warp                    6 # Number of wait barriers that each warp has. Current architectures like Volta/Turing/Ampere have 6 barriers.Configure to any positive number (default=6)
-sfu_latency                           21 # Latency of the SFU instructions.Configure to any positive number (default=21)
-tensor_latency                        32 # Maximum latency of the Tensor instructions.Configure to any positive number (default=32)
-tensor_extra_latency_16816_fp32_1688_fp32                   16 # Maximum latency of the Tensor instructions.Configure to any positive number (default=0)
-tensor_rate_per_cycle                 2048 # Rate of processing of the tensor cores per cycle.Configure to any positive number (default=2048)
-branch_latency                         2 # Latency of the branch instructions.Configure to any positive number (default=1)
-half_latency                           3 # Latency of the half instructions.Configure to any positive number (default=2)
-uniform_latency                        2 # Latency of the uniform instructions.Configure to any positive number (default=2)
-predicate_latency                     13 # Latency of the predicate instructions.Configure to any positive number (default=2)
-miscellaneous_queue_latency                    2 # Latency of the miscellaneous queue instructions.Configure to any positive number (default=2)
-miscellaneous_no_queue_latency                    1 # Latency of the miscellaneous no queue instructions.Configure to any positive number (default=1)
-sfu_initiation                         8 # Initiation interval of the SFU instructions in the dispatch latch. The number of cycles-1 that an instruction can not be sent to the same execution pipeline.Configure to any positive number (default=8)
-tensor_initiation                     16 # Initiation interval of the Tensor instructions in the dispatch latch. The number of cycles-1 that an instruction can not be sent to the same execution pipeline.Configure to any positive number (default=16)
-branch_initiation                      1 # Initiation interval of the branch instructions in the dispatch latch. The number of cycles-1 that an instruction can not be sent to the same execution pipeline.Configure to any positive number (default=1)
-half_initiation                        2 # Initiation interval of the half instructions in the dispatch latch. The number of cycles-1 that an instruction can not be sent to the same execution pipeline.Configure to any positive number (default=2)
-uniform_initiation                     2 # Initiation interval of the uniform instructions in the dispatch latch. The number of cycles-1 that an instruction can not be sent to the same execution pipeline.Configure to any positive number (default=2)
-predicate_initiation                    2 # Initiation interval of the predicate instructions in the dispatch latch. The number of cycles-1 that an instruction can not be sent to the same execution pipeline.Configure to any positive number (default=2)
-miscellaneous_queue_initiation                    2 # Initiation interval of the miscellaneous queue instructions in the dispatch latch. The number of cycles-1 that an instruction can not be sent to the same execution pipeline.Configure to any positive number (default=2)
-miscellaneous_no_queue_initiation                    1 # Initiation interval of the miscellaneous no queue instructions in the dispatch latch. The number of cycles-1 that an instruction can not be sent to the same execution pipeline.Configure to any positive number (default=1)
-miscellaneous_queue_size                    3 # Size of the queue inside each subcore for the miscellaneous queue instructions.Configure to any positive number (default=2)
-memory_subcore_queue_size                    4 # Size of the queue inside each subcore for the LD/ST/TEXT instructions before being sent to the shared unit of the SM.Configure to any positive number (default=4)
-memory_intermidiate_stages_subcore_unit                    6 # Number of intermediate stages in the memory pipeline of the subcore unit.Configure to any positive number (default=3)
-memory_sm_prt_size                   128 # Size of the PRT inside the shared memory unit in each SM. It allows to have several instructions solving their accesses to the different types of memories.Configure to any positive number (default=64)
-num_cycles_to_wait_to_dispatch_another_inst_from_subcore_to_sm_shared_pipeline_when_is_mem_inst                    2 # Number of cycles that the shared pipelines by sub-cores in the SM needs to wait until it is allowed to do the next issue when dispatched instruction is memory. Current cycle is included in the counter. For example, 1 allows to issue the next cycle.Configure to any positive number (default=2)
-num_cycles_to_wait_to_dispatch_another_inst_from_subcore_to_sm_shared_pipeline_when_is_dp_inst                    1 # Number of cycles that the shared pipelines by sub-cores in the SM needs to wait until it is allowed to do the next issue when dispatched instruction is DP. Only effective if -dp_sm_shared_queue_size is 1. Current cycle is included in the counter. For example, 1 allows to issue the next cycle.Configure to any positive number (default=1)
-memory_subcore_extra_latency_load_shared_mem                    2 # Offset latency of the shared memory instruction when is being processed (calculating address and other stuff) inside each subcore.Configure to any positive number (default=2)
-memory_shared_memory_minimum_latency                    7 # Minimum latency of the shared memory instruction when is accessing to the shared memory of the SM in the memory structures.Configure to any positive number (default=16)
-memory_shared_memory_extra_latency_ldsm_multiple_matrix                    2 # Extra latency required at SM shared memory structures when LDSM loads multiple matrices.Configure to any positive number (default=2)
-memmory_max_concurrent_requests_shmem_per_sm               999999 # Maximum number of shared memory instructions that can be concurrent in the memory SM structure.Configure to any positive number (default=4)
-memmory_max_concurrent_requests_standard_per_sm                 1024 # Maximum number of standard memory instructions (no shared) that can be concurrent in the memory SM structure.Configure to any positive number (default=8)
-sm_memory_unit_l1c_access_queue_size                    1 # Size of the access queue to the L1 constant cache at the memory SM structure.Configure to any positive number (default=1)
-sm_memory_unit_l1t_access_queue_size                    1 # Size of the access queue to the L1 texture cache at the memory SM structure.Configure to any positive number (default=1)
-sm_memory_unit_l1d_access_queue_size                    1 # Size of the access queue to the L1 constant cache at the memory SM structure. There is one queue per bank.Configure to any positive number (default=1)
-sm_memory_unit_shmem_access_queue_size                    1 # Size of the access queue to the Shared memory (SHMEM) at the memory SM structure.Configure to any positive number (default=1)
-sm_memory_unit_bypass_l1d_directly_go_to_l2_access_queue_size                    1 # Size of the access queue to directly to L2 because is bypassin l1d at the memory SM structure. There is one queue per bank.Configure to any positive number (default=1)
-sm_memory_unit_miscellaneous_access_queue_size                    1 # Size of the access queue to the miscellaneous at the memory SM structure.Configure to any positive number (default=1)
-constant_cache_latency_at_sm_structure                   11 # Minimum latency of the constant  memory instruction when is accessing to the constant memory (l1 constant cache) of the SM in the memory structures.Configure to any positive number (default=20)
-memory_l1d_minimum_latency                   13 # Minimum latency of the global memory instruction when is accessing to the L1D cache of the SM in the memory structures.Configure to any positive number (default=11)
-memory_global_shared_latency_for_ldgsts                   19 # Latency of the ICNT network between global and shared memory for the the LDGSTS.Configure to any positive number (default=11)
-memory_l1d_max_lookups_per_cycle_per_bank                    4 # Maximum number of look ups allowed per cycle in each bank of the L1D. If there are 4 banks and this parameter is set to 4, it will perform a maximum of 16 look ups in total..Configure to any positive number (default=4)
-memory_maximum_coalescing_cycles                    1 # Minimum latency of the memory instruction when it needs to perform a coalescing operation for a memory instruction.Configure to any positive number (default=1)
-offset_latency_firts_stage_memory_subcore                    0 # Number of cycles difference at the first stage of memory subcore unit respect to the baseline architecture Ampere.Configure to any positive number (default=0)
-memory_num_scalar_units_per_subcore                    8 # Number of scalar units inside each subcore for the memory instructions. Used for calculating addressesConfigure to any positive number (default=4)
-memory_subcore_link_to_sm_byte_size                  128 # Byte size between the link of a subcore and the SM for transfering data of memory instructions to SM memory structures.Configure to any positive number (default=4)
-is_load_half_bandwidth_in_the_subcore_link_to_sm_enabled                    1 # If enabled, laods have half of the bandwidth specified at -memory_subcore_link_to_sm_byte_size.Configure to any positive number (default=1)
-is_store_half_bandwidth_in_the_subcore_link_to_sm_enabled                    1 # If enabled, stores have half of the bandwidth specified at -memory_subcore_link_to_sm_byte_size.Configure to any positive number (default=0)
-dp_subcore_queue_size                    3 # Size of the queue inside each subcore for the DP instructions before being sent to the shared unit of the SM. Only used if there is not dedicated DP unit in each sub-coreConfigure to any positive number (default=4)
-dp_subcore_max_latency                   13 # Number of maximum cycles that the DP instructions takes for transferring the data from the subcore to the shared unit of the SM. Only used if there is not dedicated DP unit in each sub-core. While is active, it is not possible to transfer other DP instruction.Configure to any positive number (default=8)
-is_dp_pipeline_shared_for_subcores                    1 # If enabled, Subcores have a shared unit for executing the DP instructions. The -dp_subcore_queue_size is taken into account .(default = enabled)
-dp_sm_shared_queue_size                    1 # Size of the queue inside each SM shared execution unit for the DP instructions. Only used if there is not dedicated DP unit in each sub-coreConfigure to any positive number (default=1)
-dp_shared_intermidiate_stages                    6 # Number of intermediate stages in the shared DP pipeline.Configure to any positive number (default=1)
-is_fp32ops_allowed_in_int_pipeline                    1 # If enabled, FFMA instructions can be dispatched also to the INT execution pipeline.(default = disabled)
-is_fp32_and_int_unified_pipeline                    0 # If enabled, FP32 and INT instructions are dispatched to the same execution pipeline.(default = disabled)
-invalidate_instruction_caches_at_kernel_end                    1 # Invalidate instructions cache at the end of each kernel call
-ibuffer_coalescing                     0 # If enabled, IBuffers will snoop for instructions even though the served request is not for them.(default = disabled)
-perfect_constant_cache                    0 # If enabled, constant cache.(default = disabled)
-perfect_instruction_cache                    0 # If enabled, Perfect_instruction cache.(default = disabled)
-is_instruction_prefetching_enabled                    1 # If enabled, Instruction cache has prefetching enabled. The prefetcher just tries to prefetc subsequent blocks of the current one. That number of blocks can be configured with -prefetch_per_stream_buffer_size.(default = disabled)
-prefetch_per_stream_buffer_size                    8 # Number of blocks that the instruction cache prefetcher (stream buffer)can hold. Only effective if -is_instruction_prefetching_enabled is enabled.Configure to any positive number (default=1)
-prefetch_num_stream_buffers                    1 # Number of stream buffers in the first level instruction cache. Only effective if -is_instruction_prefetching_enabled is enabled.Configure to any positive number (default=1)
-num_instruction_prefetches_per_cycle                    1 # Number of blocks that the instruction cache prefetcher tries to prefetch every cycle. Only effective if -is_instruction_prefetching_enabled is enabled.Configure to any positive number (default=1)
-is_rf_cache_enabled                    1 # If enabled, Regular register file has the register file feature enabled.(default = enabled)
-max_operands_regular_register_file                    4 # Number of operands with regular register allowed per instruction. Only used when -is_rf_cache_enabled is enabled.Configure to any positive number (default=4)
-max_latency_regular_register_file_latency                   24 # Maximum supported latency (cycles) for reading operands in the regular register file.Configure to any positive number (default=4)
-num_regular_register_file_read_ports_per_bank                    1 # Number of read ports per bank in the regular register file available per cycle.Configure to any positive number (default=6)
-num_regular_register_file_write_ports_per_bank                    1 # Number of write ports per bank in the regular register file available per cycle.Configure to any positive number (default=1)
-max_size_register_file_write_queue_for_fixed_latency_instructions                    8 # Maximum size of the register file write_queue for fixed latency instructions.Configure to any positive number (default=1)
-max_pops_per_cycle_register_file_write_queue_for_fixed_latency_instructions                    1 # Maximum number of pops per cycle of the register file write_queue for fixed latency instructions.Configure to any positive number (default=1)
-num_threads_granularity_read_regular_register_file_dp_inst                   32 # Granularity of theads inside a warp for reading RF for DP instrucions. For example, 8 means that it needs 4 cycles because the width is 256 bits and takes 4 cycles to read the 32 threads (1024 width).Configure to any positive number (default=8)
-num_threads_granularity_read_regular_register_file_mem_inst                   32 # Granularity of theads inside a warp for reading RF for memory instrucions. For example, 8 means that it needs 4 cycles because the width is 256 bits and takes 4 cycles to read the 32 threads (1024 width).Configure to any positive number (default=8)
-num_threads_granularity_read_regular_register_file_sfu_inst                   32 # Granularity of theads inside a warp for reading RF for special function instrucions. For example, 8 means that it needs 4 cycles because the width is 256 bits and takes 4 cycles to read the 32 threads (1024 width).Configure to any positive number (default=8)
-num_threads_granularity_read_regular_register_file_other_inst                   32 # Granularity of theads inside a warp for reading RF for DP instrucions. For example, 8 means that it needs 4 cycles because the width is 256 bits and takes 4 cycles to read the 32 threads (1024 width).Configure to any positive number (default=8)
-num_cycles_needed_to_write_a_reg_from_sm_struct_to_subcore                    2 # Number of cycles needed to write a register from the SM structure (memory or shared dp if enabled) to the subcore.Configure to any positive number (default=2)
-is_const_cache_accessed_blocks_tracking_enabled                    1 # If enabled, a set will track all the address accessed by the constant cache and then it will report the different number of accesses blocks at the end of the execution.(default = disabled)
-is_global_memory_accesses_blocks_tracking_enabled                    1 # If enabled, a set will track all the address accessed by the global memory and then it will report the different number of accessed blocks at the end of the execution.(default = disabled)
-num_const_cache_cycle_misses_before_switch_to_other_warp                    4 # Number of cycles the issue stage can not swap to a different warp due to constant cache keeps trying a miss.Configure to any positive number (default=4)
-num_cycles_issue_port_busy_after_imadwide                    1 # Number of cycles the issue stage can not issue any instruction because the previous one issued (an IMAD.WIDE) is keeping the issue port busy.Configure to any positive number (default=4)
-num_stall_cycles_wait_after_bits_stall_0_and_yield                   46 # Number of cycles that the stall counter is set when the instruction has the combination of Stall bits set to 0 and yield set on.Configure to any positive number (default=0)
-num_cycles_to_stall_SM_at_gpu_memory_barrier                  186 # Number of cycles that the SM is stalled after all the warps of the SM have reached the MEMBAR.GPU.Configure to any positive number (default=0)
-num_cycles_to_stall_SM_at_system_memory_barrier                 2900 # Number of cycles that the SM is stalled after all the warps of the SM have reached the MEMBAR.SYS.Configure to any positive number (default=0)
-num_cycles_to_stall_SM_at_cta_memory_barrier                   53 # Number of cycles that the SM is stalled after all the warps of the SM have reached the MEMBAR.CTA.Configure to any positive number (default=0)
-gpgpu_subcore_const_cache:l0 N:4:64:2,L:R:f:N:L,S:32:32,32 # per-subcore L0 constant memory cache  (READ-ONLY) config  {<nsets>:<bsize>:<assoc>,<rep>:<wr>:<alloc>:<wr_alloc>,<mshr>:<N>:<merge>,<mq>} 
-is_custom_omp_scheduler_enabled                    1 # If enabled, a set will track all the address accessed by the constant cache and then it will report the different number of accesses at the end of the execution.(default = enabled)
-custom_omp_scheduler_ratio_to_dynamic                  0.3 # Ratio which below that number the OMP for-loop scheduler is set to dynamic. Range from 0 to 1.(default = 0.3)
-filter_first_kernel_id                    0 # If enabled, the simulation will start from the first kernel id configured in this parameter. If it has a value of 1 or 0 it is disabled.Configure to any positive number (default=0)
-filter_last_kernel_id                  500 # If enabled, the simulation will end at the last kernel id configured in this parameter. If it has a value of 1 or 0 it is disabled.Configure to any positive number (default=0)
-measure_coalescing_potential_stats                    0 # If enabled, We track the distance and how much intra and inter warp coalescing exists It consumes more RAM.(default = 0 (disabled))
-is_interwarp_coalescing_enabled                    0 # If enabled, We enable the Interwarp coalescing techniques.(default = 0 (disabled))
-num_interwarp_coalescing_tables                    1 # Number of interwarp coalescing tables.(default = 1)
-max_size_interwarp_coalescing_per_table                99999 # Size of each interwarp coalescing tables.(default = 64)
-interwarp_coalescing_quanta               100000 # Number of cycles used for the quanta in interwarp coalescing in case of being need.(default = 100000)
-interwarp_coalescing_quanta_warppool_policy_miss_ratio_threshold                 0.99 # Threshold where beyond that miss ratio in that quanta, GTL_WARPID policy is applied if we use WARPPOOL_HYBRID. Otherwise, OLDEST policy is applied.(default = 0.99)
-number_of_coalescers                    4 # Number of coalescers applaying intra-warp coalescing to different instruction in each of the coalescers.(default = 1)
-number_of_clusters_for_prt_selection                   16 # Number of cluster that are going to be used for PRT selection when WARPID_N_CLUSTERS_WITH_OLDEST is chosen .(default = 16)
-interwarp_coalescing_selection_policy_string               OLDEST # interwarp_coalescing_selection_policy_string mode: < OLDEST | GTL_WARPID | SAME_LAST_LEADER_INST_PC_THEN_OLDEST | WARPPOOL_HYBRID | DEP_COUNT_WAIT_OLDEST_INST_IBUFFER_GENERIC | DEP_COUNT_WAIT_OLDEST_INST_IBUFFER_CHECKING_WARP_ID | DEP_COUNT_WAIT_DETECTED_AT_DECODE_GENERIC | DEP_COUNT_WAIT_DETECTED_AT_DECODE_CHECKING_WARP_ID > Default: OLDEST
-prt_selection_policy_string               OLDEST # prt_selection_policy_string mode: < OLDEST | SAME_LAST_WARP_ID_THEN_OLDEST | SAME_LAST_INST_PC_THEN_OLDEST | WARPID_N_CLUSTERS_WITH_OLDEST | DEP_COUNT_WAIT_GENERIC_THEN_OLDEST | DEP_COUNT_WAIT_CHECKING_WARP_ID_THEN_OLDEST > Default: OLDEST
-is_num_virtual_pages_tracking_enabled                    1 # If enabled, a set will track all the different virtual pages. Then it will report the different number of virtual pages accessed at the end of the execution.(default = disabled)
-virtual_page_size_in_bytes              2097152 # Size of a virtual page in bytes. Default 2MiB == 2097152.Configure to any positive number (default=2097152)
-gpgpu_perf_sim_memcpy                    1 # Fill the L2 cache on memcpy
-gpgpu_simple_dram_model                    0 # simple_dram_model with fixed latency and BW
-gpgpu_dram_scheduler                    1 # 0 = fifo, 1 = FR-FCFS (defaul)
-gpgpu_dram_partition_queues          64:64:64:64 # i2$:$2d:d2$:$2i
-l2_ideal                               0 # Use a ideal L2 cache that always hit
-gpgpu_cache:dl2     S:128:128:24,L:B:m:L:P,A:192:96,32:0,32 # unified banked L2 data cache config  {<nsets>:<bsize>:<assoc>,<rep>:<wr>:<alloc>:<wr_alloc>,<mshr>:<N>:<merge>,<mq>}
-gpgpu_cache:dl2_texture_only                    0 # L2 cache used for texture only
-gpgpu_n_mem                           16 # number of memory modules (e.g. memory controllers) in gpu
-gpgpu_n_sub_partition_per_mchannel                    8 # number of memory subpartition in each memory module
-gpgpu_n_mem_per_ctrlr                    1 # number of memory chips per memory controller
-gpgpu_memlatency_stat                   14 # track and display latency statistics 0x2 enables MC, 0x4 enables queue logs
-gpgpu_frfcfs_dram_sched_queue_size                   92 # 0 = unlimited (default); # entries per chip
-gpgpu_dram_return_queue_size                   92 # 0 = unlimited (default); # entries per chip
-gpgpu_dram_buswidth                    2 # default = 4 bytes (8 bytes per cycle at DDR)
-gpgpu_dram_burst_length                   16 # Burst length of each DRAM request (default = 4 data bus cycle)
-dram_data_command_freq_ratio                    4 # Frequency ratio between DRAM data bus and command bus (default = 2 times, i.e. DDR)
-gpgpu_dram_timing_opt nbk=16:CCD=4:RRD=12:RCD=24:RAS=55:RP=24:RC=78:CL=24:WL=8:CDLR=10:WR=24:nbkgrp=4:CCDL=6:RTPL=4 # DRAM timing parameters = {nbk:tCCD:tRRD:tRCD:tRAS:tRP:tRC:CL:WL:tCDLR:tWR:nbkgrp:tCCDL:tRTPL}
-gpgpu_l2_rop_latency                  301 # ROP queue latency (default 85)
-dram_latency                         255 # DRAM latency (default 30)
-dram_dual_bus_interface                    0 # dual_bus_interface (default = 0) 
-dram_bnk_indexing_policy                    0 # dram_bnk_indexing_policy (0 = normal indexing, 1 = Xoring with the higher bits) (Default = 0)
-dram_bnkgrp_indexing_policy                    1 # dram_bnkgrp_indexing_policy (0 = take higher bits, 1 = take lower bits) (Default = 0)
-dram_seperate_write_queue_enable                    0 # Seperate_Write_Queue_Enable
-dram_write_queue_size             32:28:16 # Write_Queue_Size
-dram_elimnate_rw_turnaround                    0 # elimnate_rw_turnaround i.e set tWTR and tRTW = 0
-icnt_flit_size                        40 # icnt_flit_size
-gpgpu_mem_addr_mapping dramid@8;00000000.00000000.00000000.00000000.0000RRRR.RRRRRRRR.RBBBCCCC.BCCSSSSS # mapping memory address to dram model {dramid@<start bit>;<memory address map>}
-gpgpu_mem_addr_test                    0 # run sweep test to check address mapping for aliased address
-gpgpu_mem_address_mask                    1 # 0 = old addressing mask, 1 = new addressing mask, 2 = new add. mask + flipped bank sel and chip sel bits
-gpgpu_memory_partition_indexing                    2 # 0 = no indexing, 1 = bitwise xoring, 2 = IPoly, 3 = custom indexing
-accelwattch_xml_file accelwattch_sass_sim.xml # AccelWattch XML file
-power_simulation_enabled                    0 # Turn on power simulator (1=On, 0=Off)
-power_per_cycle_dump                    0 # Dump detailed power output each cycle
-hw_perf_file_name            hw_perf.csv # Hardware Performance Statistics file
-hw_perf_bench_name                       # Kernel Name in Hardware Performance Statistics file
-power_simulation_mode                    0 # Switch performance counter input for power simulation (0=Sim, 1=HW, 2=HW-Sim Hybrid)
-dvfs_enabled                           0 # Turn on DVFS for power model
-aggregate_power_stats                    0 # Accumulate power across all kernels
-accelwattch_hybrid_perfsim_L1_RH                    0 # Get L1 Read Hits for Accelwattch-Hybrid from Accel-Sim
-accelwattch_hybrid_perfsim_L1_RM                    0 # Get L1 Read Misses for Accelwattch-Hybrid from Accel-Sim
-accelwattch_hybrid_perfsim_L1_WH                    0 # Get L1 Write Hits for Accelwattch-Hybrid from Accel-Sim
-accelwattch_hybrid_perfsim_L1_WM                    0 # Get L1 Write Misses for Accelwattch-Hybrid from Accel-Sim
-accelwattch_hybrid_perfsim_L2_RH                    0 # Get L2 Read Hits for Accelwattch-Hybrid from Accel-Sim
-accelwattch_hybrid_perfsim_L2_RM                    0 # Get L2 Read Misses for Accelwattch-Hybrid from Accel-Sim
-accelwattch_hybrid_perfsim_L2_WH                    0 # Get L2 Write Hits for Accelwattch-Hybrid from Accel-Sim
-accelwattch_hybrid_perfsim_L2_WM                    0 # Get L2 Write Misses for Accelwattch-Hybrid from Accel-Sim
-accelwattch_hybrid_perfsim_CC_ACC                    0 # Get Constant Cache Acesses for Accelwattch-Hybrid from Accel-Sim
-accelwattch_hybrid_perfsim_SHARED_ACC                    0 # Get Shared Memory Acesses for Accelwattch-Hybrid from Accel-Sim
-accelwattch_hybrid_perfsim_DRAM_RD                    0 # Get DRAM Reads for Accelwattch-Hybrid from Accel-Sim
-accelwattch_hybrid_perfsim_DRAM_WR                    0 # Get DRAM Writes for Accelwattch-Hybrid from Accel-Sim
-accelwattch_hybrid_perfsim_NOC                    0 # Get Interconnect Acesses for Accelwattch-Hybrid from Accel-Sim
-accelwattch_hybrid_perfsim_PIPE_DUTY                    0 # Get Pipeline Duty Cycle Acesses for Accelwattch-Hybrid from Accel-Sim
-accelwattch_hybrid_perfsim_NUM_SM_IDLE                    0 # Get Number of Idle SMs for Accelwattch-Hybrid from Accel-Sim
-accelwattch_hybrid_perfsim_CYCLES                    0 # Get Executed Cycles for Accelwattch-Hybrid from Accel-Sim
-accelwattch_hybrid_perfsim_VOLTAGE                    0 # Get Chip Voltage for Accelwattch-Hybrid from Accel-Sim
-power_trace_enabled                    0 # produce a file for the power trace (1=On, 0=Off)
-power_trace_zlevel                     6 # Compression level of the power trace output log (0=no comp, 9=highest)
-steady_power_levels_enabled                    0 # produce a file for the steady power levels (1=On, 0=Off)
-steady_state_definition                  8:4 # allowed deviation:number of samples
-gpgpu_max_cycle                        0 # terminates gpu simulation early (0 = no limit)
-gpgpu_max_insn                         0 # terminates gpu simulation early (0 = no limit)
-gpgpu_max_cta                          0 # terminates gpu simulation early (0 = no limit)
-gpgpu_max_completed_cta                    0 # terminates gpu simulation early (0 = no limit)
-gpgpu_runtime_stat                   500 # display runtime statistics such as dram utilization {<freq>:<flag>}
-liveness_message_freq                    1 # Minimum number of seconds between simulation liveness messages (0 = always print)
-gpgpu_compute_capability_major                   12 # Major compute capability version number
-gpgpu_compute_capability_minor                    0 # Minor compute capability version number
-gpgpu_flush_l1_cache                    1 # Flush L1 cache at the end of each kernel call
-gpgpu_flush_l2_cache                    1 # Flush L2 cache at the end of each kernel call
-gpgpu_deadlock_detect                    1 # Stop the simulation at deadlock (1=on (default), 0=off)
-gpgpu_ptx_instruction_classification                    0 # if enabled will classify ptx instruction types per kernel (Max 255 kernels now)
-gpgpu_ptx_sim_mode                     0 # Select between Performance (default) or Functional simulation (1)
-gpgpu_clock_domains 2580:2580:2580:14000 # Clock Domain Frequencies in MhZ {<Core Clock>:<ICNT Clock>:<L2 Clock>:<DRAM Clock>}
-gpgpu_max_concurrent_kernel                  128 # maximum kernels that can run concurrently on GPU, set this value according to max resident grids for your compute capability
-gpgpu_cflog_interval                    0 # Interval between each snapshot in control flow logger
-visualizer_enabled                     0 # Turn on visualizer output (1=On, 0=Off)
-visualizer_outputfile                 NULL # Specifies the output log file for visualizer
-visualizer_zlevel                      6 # Compression level of the visualizer output log (0=no comp, 9=highest)
-gpgpu_stack_size_limit                 1024 # GPU thread stack size
-gpgpu_heap_size_limit              8388608 # GPU malloc heap size 
-gpgpu_runtime_sync_depth_limit                    2 # GPU device runtime synchronize depth
-gpgpu_runtime_pending_launch_count_limit                 2048 # GPU device runtime pending launch count
-trace_enabled                          0 # Turn on traces
-trace_components                    none # comma seperated list of traces to enable. Complete list found in trace_streams.tup. Default none
-trace_sampling_core                    0 # The core which is printed using CORE_DPRINTF. Default 0
-trace_sampling_memory_partition                   -1 # The memory partition which is printed using MEMPART_DPRINTF. Default -1 (i.e. all)
-enable_ptx_file_line_stats                    1 # Turn on PTX source line statistic profiling. (1 = On)
-ptx_line_stats_filename gpgpu_inst_stats.txt # Output file for PTX source line statistics.
-gpgpu_kernel_launch_latency                 1800 # Kernel launch latency in cycles. Default: 0
-gpgpu_cdp_enabled                      0 # Turn on CDP
-gpgpu_TB_launch_latency                    0 # thread block launch latency in cycles. Default: 0
-trace               ./hw_run/traces/device-0/12.8/backprop-rodinia-2.0-ft/4096___data_result_4096_txt/traces/dynamic_trace.pb # traces kernel filetraces kernel file directory
-trace_opcode_latency_initiation_int                  2,2 # Opcode latencies and initiation for integers in trace driven mode <latency,initiation>
-trace_opcode_latency_initiation_sp                  2,2 # Opcode latencies and initiation for sp in trace driven mode <latency,initiation>
-trace_opcode_latency_initiation_dp                24,16 # Opcode latencies and initiation for dp in trace driven mode <latency,initiation>
-trace_opcode_latency_initiation_sfu                  8,8 # Opcode latencies and initiation for sfu in trace driven mode <latency,initiation>
-trace_opcode_latency_initiation_tensor                  8,8 # Opcode latencies and initiation for tensor in trace driven mode <latency,initiation>
-trace_opcode_latency_initiation_branch                  2,1 # Opcode latencies and initiation for branch in trace driven mode <latency,initiation>
-trace_opcode_latency_initiation_half                  3,2 # Opcode latencies and initiation for half in trace driven mode <latency,initiation>
-trace_opcode_latency_initiation_uniform                  2,2 # Opcode latencies and initiation for uniform in trace driven mode <latency,initiation>
-trace_opcode_latency_initiation_predicate                 13,2 # Opcode latencies and initiation for predicate in trace driven mode <latency,initiation>
-trace_opcode_latency_initiation_miscellaneous_queue                  2,2 # Opcode latencies and initiation for miscellaneous queue in trace driven mode <latency,initiation>
-trace_opcode_latency_initiation_miscellaneous_no_queue                  1,1 # Opcode latencies and initiation for miscellaneous no queue in trace driven mode <latency,initiation>
-trace_opcode_latency_initiation_spec_op_1                  4,4 # specialized unit config <latency,initiation>
-trace_opcode_latency_initiation_spec_op_2                200,4 # specialized unit config <latency,initiation>
-trace_opcode_latency_initiation_spec_op_3                  4,4 # specialized unit config <latency,initiation>
-trace_opcode_latency_initiation_spec_op_4                  4,4 # specialized unit config <latency,initiation>
-trace_opcode_latency_initiation_spec_op_5                  4,4 # specialized unit config <latency,initiation>
-trace_opcode_latency_initiation_spec_op_6                  4,4 # specialized unit config <latency,initiation>
-trace_opcode_latency_initiation_spec_op_7                  4,4 # specialized unit config <latency,initiation>
-trace_opcode_latency_initiation_spec_op_8                  4,4 # specialized unit config <latency,initiation>
-is_extra_traces_enabled                    1 # If enabled, the simulator will use an extra file (json) which has useful information for the simulation (.gz).is_extra_traces_enabled (default = disabled)
DRAM Timing Options:
nbk                                    16 # number of banks
CCD                                     4 # column to column delay
RRD                                    12 # minimal delay between activation of rows in different banks
RCD                                    24 # row to column delay
RAS                                    55 # time needed to activate row
RP                                     24 # time needed to precharge (deactivate) row
RC                                     78 # row cycle time
CDLR                                   10 # switching from write to read (changes tWTR)
WR                                     24 # last data-in to row precharge
CL                                     24 # CAS latency
WL                                      8 # Write latency
nbkgrp                                  4 # number of bank groups
CCDL                                    6 # column to column delay between accesses to different bank groups
RTPL                                    4 # read to precharge delay between accesses to different bank groups
Total number of memory sub partition = 128
addr_dec_mask[CHIP]  = 0000000000000f00 	high:12 low:8
addr_dec_mask[BK]    = 0000000000070080 	high:19 low:7
addr_dec_mask[ROW]   = 00000000fff80000 	high:32 low:19
addr_dec_mask[COL]   = 000000000000f07f 	high:16 low:0
addr_dec_mask[BURST] = 000000000000001f 	high:5 low:0
sub_partition_id_mask = 0000000000030080
GPGPU-Sim uArch: clock freqs: 2580000000.000000:2580000000.000000:2580000000.000000:14000000000.000000
GPGPU-Sim uArch: clock periods: 0.00000000038759689922:0.00000000038759689922:0.00000000038759689922:0.00000000007142857143
*** Initializing Memory Statistics ***
*** Initializing Memory Statistics ***
*** Initializing Memory Statistics ***
*** Initializing Memory Statistics ***
*** Initializing Memory Statistics ***
*** Initializing Memory Statistics ***
*** Initializing Memory Statistics ***
*** Initializing Memory Statistics ***
*** Initializing Memory Statistics ***
*** Initializing Memory Statistics ***
*** Initializing Memory Statistics ***
*** Initializing Memory Statistics ***
*** Initializing Memory Statistics ***
*** Initializing Memory Statistics ***
*** Initializing Memory Statistics ***
*** Initializing Memory Statistics ***
*** Initializing Memory Statistics ***
GPGPU-Sim uArch: performance model initialization complete.
launching memcpy command : MemcpyHtoD,0x0000000702600000,16388,deviceid-0,streamid-0
launching memcpy command : MemcpyHtoD,0x0000000702604400,278596,deviceid-0,streamid-0
Processing kernel kernel-1.trace,deviceid-0,streamid-0
Header info loaded for kernel command : kernel-1.trace,deviceid-0,streamid-0
launching kernel name: _Z22bpnn_layerforward_CUDAPfS_S_S_ii___0 uid: 1
GPGPU-Sim uArch: Shader 0 bind to kernel 1 '_Z22bpnn_layerforward_CUDAPfS_S_S_ii___0'
GPGPU-Sim uArch: CTA/core = 6, limited by: threads
GPGPU-Sim: Reconfigure L1 cache to 120KB
thread block = 0,0,0
GPGPU-Sim uArch: Shader 1 bind to kernel 1 '_Z22bpnn_layerforward_CUDAPfS_S_S_ii___0'
thread block = 0,1,0
GPGPU-Sim uArch: Shader 2 bind to kernel 1 '_Z22bpnn_layerforward_CUDAPfS_S_S_ii___0'
thread block = 0,2,0
GPGPU-Sim uArch: Shader 3 bind to kernel 1 '_Z22bpnn_layerforward_CUDAPfS_S_S_ii___0'
thread block = 0,3,0
GPGPU-Sim uArch: Shader 4 bind to kernel 1 '_Z22bpnn_layerforward_CUDAPfS_S_S_ii___0'
thread block = 0,4,0
GPGPU-Sim uArch: Shader 5 bind to kernel 1 '_Z22bpnn_layerforward_CUDAPfS_S_S_ii___0'
thread block = 0,5,0
GPGPU-Sim uArch: Shader 6 bind to kernel 1 '_Z22bpnn_layerforward_CUDAPfS_S_S_ii___0'
thread block = 0,6,0
GPGPU-Sim uArch: Shader 7 bind to kernel 1 '_Z22bpnn_layerforward_CUDAPfS_S_S_ii___0'
thread block = 0,7,0
GPGPU-Sim uArch: Shader 8 bind to kernel 1 '_Z22bpnn_layerforward_CUDAPfS_S_S_ii___0'
thread block = 0,8,0
GPGPU-Sim uArch: Shader 9 bind to kernel 1 '_Z22bpnn_layerforward_CUDAPfS_S_S_ii___0'
thread block = 0,9,0
GPGPU-Sim uArch: Shader 10 bind to kernel 1 '_Z22bpnn_layerforward_CUDAPfS_S_S_ii___0'
thread block = 0,10,0
GPGPU-Sim uArch: Shader 11 bind to kernel 1 '_Z22bpnn_layerforward_CUDAPfS_S_S_ii___0'
thread block = 0,11,0
GPGPU-Sim uArch: Shader 12 bind to kernel 1 '_Z22bpnn_layerforward_CUDAPfS_S_S_ii___0'
thread block = 0,12,0
GPGPU-Sim uArch: Shader 13 bind to kernel 1 '_Z22bpnn_layerforward_CUDAPfS_S_S_ii___0'
thread block = 0,13,0
GPGPU-Sim uArch: Shader 14 bind to kernel 1 '_Z22bpnn_layerforward_CUDAPfS_S_S_ii___0'
thread block = 0,14,0
GPGPU-Sim uArch: Shader 15 bind to kernel 1 '_Z22bpnn_layerforward_CUDAPfS_S_S_ii___0'
thread block = 0,15,0
GPGPU-Sim uArch: Shader 16 bind to kernel 1 '_Z22bpnn_layerforward_CUDAPfS_S_S_ii___0'
thread block = 0,16,0
GPGPU-Sim uArch: Shader 17 bind to kernel 1 '_Z22bpnn_layerforward_CUDAPfS_S_S_ii___0'
thread block = 0,17,0
GPGPU-Sim uArch: Shader 18 bind to kernel 1 '_Z22bpnn_layerforward_CUDAPfS_S_S_ii___0'
thread block = 0,18,0
GPGPU-Sim uArch: Shader 19 bind to kernel 1 '_Z22bpnn_layerforward_CUDAPfS_S_S_ii___0'
thread block = 0,19,0
GPGPU-Sim uArch: Shader 20 bind to kernel 1 '_Z22bpnn_layerforward_CUDAPfS_S_S_ii___0'
thread block = 0,20,0
GPGPU-Sim uArch: Shader 21 bind to kernel 1 '_Z22bpnn_layerforward_CUDAPfS_S_S_ii___0'
thread block = 0,21,0
GPGPU-Sim uArch: Shader 22 bind to kernel 1 '_Z22bpnn_layerforward_CUDAPfS_S_S_ii___0'
thread block = 0,22,0
GPGPU-Sim uArch: Shader 23 bind to kernel 1 '_Z22bpnn_layerforward_CUDAPfS_S_S_ii___0'
thread block = 0,23,0
GPGPU-Sim uArch: Shader 24 bind to kernel 1 '_Z22bpnn_layerforward_CUDAPfS_S_S_ii___0'
thread block = 0,24,0
GPGPU-Sim uArch: Shader 25 bind to kernel 1 '_Z22bpnn_layerforward_CUDAPfS_S_S_ii___0'
thread block = 0,25,0
GPGPU-Sim uArch: Shader 26 bind to kernel 1 '_Z22bpnn_layerforward_CUDAPfS_S_S_ii___0'
thread block = 0,26,0
GPGPU-Sim uArch: Shader 27 bind to kernel 1 '_Z22bpnn_layerforward_CUDAPfS_S_S_ii___0'
thread block = 0,27,0
GPGPU-Sim uArch: Shader 28 bind to kernel 1 '_Z22bpnn_layerforward_CUDAPfS_S_S_ii___0'
thread block = 0,28,0
GPGPU-Sim uArch: Shader 29 bind to kernel 1 '_Z22bpnn_layerforward_CUDAPfS_S_S_ii___0'
thread block = 0,29,0
GPGPU-Sim uArch: Shader 30 bind to kernel 1 '_Z22bpnn_layerforward_CUDAPfS_S_S_ii___0'
thread block = 0,30,0
GPGPU-Sim uArch: Shader 31 bind to kernel 1 '_Z22bpnn_layerforward_CUDAPfS_S_S_ii___0'
thread block = 0,31,0
GPGPU-Sim uArch: Shader 32 bind to kernel 1 '_Z22bpnn_layerforward_CUDAPfS_S_S_ii___0'
thread block = 0,32,0
GPGPU-Sim uArch: Shader 33 bind to kernel 1 '_Z22bpnn_layerforward_CUDAPfS_S_S_ii___0'
thread block = 0,33,0
GPGPU-Sim uArch: Shader 34 bind to kernel 1 '_Z22bpnn_layerforward_CUDAPfS_S_S_ii___0'
thread block = 0,34,0
GPGPU-Sim uArch: Shader 35 bind to kernel 1 '_Z22bpnn_layerforward_CUDAPfS_S_S_ii___0'
thread block = 0,35,0
GPGPU-Sim uArch: Shader 36 bind to kernel 1 '_Z22bpnn_layerforward_CUDAPfS_S_S_ii___0'
thread block = 0,36,0
GPGPU-Sim uArch: Shader 37 bind to kernel 1 '_Z22bpnn_layerforward_CUDAPfS_S_S_ii___0'
thread block = 0,37,0
GPGPU-Sim uArch: Shader 38 bind to kernel 1 '_Z22bpnn_layerforward_CUDAPfS_S_S_ii___0'
thread block = 0,38,0
GPGPU-Sim uArch: Shader 39 bind to kernel 1 '_Z22bpnn_layerforward_CUDAPfS_S_S_ii___0'
thread block = 0,39,0
GPGPU-Sim uArch: Shader 40 bind to kernel 1 '_Z22bpnn_layerforward_CUDAPfS_S_S_ii___0'
thread block = 0,40,0
GPGPU-Sim uArch: Shader 41 bind to kernel 1 '_Z22bpnn_layerforward_CUDAPfS_S_S_ii___0'
thread block = 0,41,0
GPGPU-Sim uArch: Shader 42 bind to kernel 1 '_Z22bpnn_layerforward_CUDAPfS_S_S_ii___0'
thread block = 0,42,0
GPGPU-Sim uArch: Shader 43 bind to kernel 1 '_Z22bpnn_layerforward_CUDAPfS_S_S_ii___0'
thread block = 0,43,0
GPGPU-Sim uArch: Shader 44 bind to kernel 1 '_Z22bpnn_layerforward_CUDAPfS_S_S_ii___0'
thread block = 0,44,0
GPGPU-Sim uArch: Shader 45 bind to kernel 1 '_Z22bpnn_layerforward_CUDAPfS_S_S_ii___0'
thread block = 0,45,0
GPGPU-Sim uArch: Shader 46 bind to kernel 1 '_Z22bpnn_layerforward_CUDAPfS_S_S_ii___0'
thread block = 0,46,0
GPGPU-Sim uArch: Shader 47 bind to kernel 1 '_Z22bpnn_layerforward_CUDAPfS_S_S_ii___0'
thread block = 0,47,0
GPGPU-Sim uArch: Shader 48 bind to kernel 1 '_Z22bpnn_layerforward_CUDAPfS_S_S_ii___0'
thread block = 0,48,0
GPGPU-Sim uArch: Shader 49 bind to kernel 1 '_Z22bpnn_layerforward_CUDAPfS_S_S_ii___0'
thread block = 0,49,0
GPGPU-Sim uArch: Shader 50 bind to kernel 1 '_Z22bpnn_layerforward_CUDAPfS_S_S_ii___0'
thread block = 0,50,0
GPGPU-Sim uArch: Shader 51 bind to kernel 1 '_Z22bpnn_layerforward_CUDAPfS_S_S_ii___0'
thread block = 0,51,0
GPGPU-Sim uArch: Shader 52 bind to kernel 1 '_Z22bpnn_layerforward_CUDAPfS_S_S_ii___0'
thread block = 0,52,0
GPGPU-Sim uArch: Shader 53 bind to kernel 1 '_Z22bpnn_layerforward_CUDAPfS_S_S_ii___0'
thread block = 0,53,0
GPGPU-Sim uArch: Shader 54 bind to kernel 1 '_Z22bpnn_layerforward_CUDAPfS_S_S_ii___0'
thread block = 0,54,0
GPGPU-Sim uArch: Shader 55 bind to kernel 1 '_Z22bpnn_layerforward_CUDAPfS_S_S_ii___0'
thread block = 0,55,0
GPGPU-Sim uArch: Shader 56 bind to kernel 1 '_Z22bpnn_layerforward_CUDAPfS_S_S_ii___0'
thread block = 0,56,0
GPGPU-Sim uArch: Shader 57 bind to kernel 1 '_Z22bpnn_layerforward_CUDAPfS_S_S_ii___0'
thread block = 0,57,0
GPGPU-Sim uArch: Shader 58 bind to kernel 1 '_Z22bpnn_layerforward_CUDAPfS_S_S_ii___0'
thread block = 0,58,0
GPGPU-Sim uArch: Shader 59 bind to kernel 1 '_Z22bpnn_layerforward_CUDAPfS_S_S_ii___0'
thread block = 0,59,0
GPGPU-Sim uArch: Shader 60 bind to kernel 1 '_Z22bpnn_layerforward_CUDAPfS_S_S_ii___0'
thread block = 0,60,0
GPGPU-Sim uArch: Shader 61 bind to kernel 1 '_Z22bpnn_layerforward_CUDAPfS_S_S_ii___0'
thread block = 0,61,0
GPGPU-Sim uArch: Shader 62 bind to kernel 1 '_Z22bpnn_layerforward_CUDAPfS_S_S_ii___0'
thread block = 0,62,0
GPGPU-Sim uArch: Shader 63 bind to kernel 1 '_Z22bpnn_layerforward_CUDAPfS_S_S_ii___0'
thread block = 0,63,0
GPGPU-Sim uArch: Shader 64 bind to kernel 1 '_Z22bpnn_layerforward_CUDAPfS_S_S_ii___0'
thread block = 0,64,0
GPGPU-Sim uArch: Shader 65 bind to kernel 1 '_Z22bpnn_layerforward_CUDAPfS_S_S_ii___0'
thread block = 0,65,0
GPGPU-Sim uArch: Shader 66 bind to kernel 1 '_Z22bpnn_layerforward_CUDAPfS_S_S_ii___0'
thread block = 0,66,0
GPGPU-Sim uArch: Shader 67 bind to kernel 1 '_Z22bpnn_layerforward_CUDAPfS_S_S_ii___0'
thread block = 0,67,0
GPGPU-Sim uArch: Shader 68 bind to kernel 1 '_Z22bpnn_layerforward_CUDAPfS_S_S_ii___0'
thread block = 0,68,0
GPGPU-Sim uArch: Shader 69 bind to kernel 1 '_Z22bpnn_layerforward_CUDAPfS_S_S_ii___0'
thread block = 0,69,0
thread block = 0,70,0
thread block = 0,71,0
thread block = 0,72,0
thread block = 0,73,0
thread block = 0,74,0
thread block = 0,75,0
thread block = 0,76,0
thread block = 0,77,0
thread block = 0,78,0
thread block = 0,79,0
thread block = 0,80,0
thread block = 0,81,0
thread block = 0,82,0
thread block = 0,83,0
thread block = 0,84,0
thread block = 0,85,0
thread block = 0,86,0
thread block = 0,87,0
thread block = 0,88,0
thread block = 0,89,0
thread block = 0,90,0
thread block = 0,91,0
thread block = 0,92,0
thread block = 0,93,0
thread block = 0,94,0
thread block = 0,95,0
thread block = 0,96,0
thread block = 0,97,0
thread block = 0,98,0
thread block = 0,99,0
thread block = 0,100,0
thread block = 0,101,0
thread block = 0,102,0
thread block = 0,103,0
thread block = 0,104,0
thread block = 0,105,0
thread block = 0,106,0
thread block = 0,107,0
thread block = 0,108,0
thread block = 0,109,0
thread block = 0,110,0
thread block = 0,111,0
thread block = 0,112,0
thread block = 0,113,0
thread block = 0,114,0
thread block = 0,115,0
thread block = 0,116,0
thread block = 0,117,0
thread block = 0,118,0
thread block = 0,119,0
thread block = 0,120,0
thread block = 0,121,0
thread block = 0,122,0
thread block = 0,123,0
thread block = 0,124,0
thread block = 0,125,0
thread block = 0,126,0
thread block = 0,127,0
thread block = 0,128,0
thread block = 0,129,0
thread block = 0,130,0
thread block = 0,131,0
thread block = 0,132,0
thread block = 0,133,0
thread block = 0,134,0
thread block = 0,135,0
thread block = 0,136,0
thread block = 0,137,0
thread block = 0,138,0
thread block = 0,139,0
thread block = 0,140,0
thread block = 0,141,0
thread block = 0,142,0
thread block = 0,143,0
thread block = 0,144,0
thread block = 0,145,0
thread block = 0,146,0
thread block = 0,147,0
thread block = 0,148,0
thread block = 0,149,0
thread block = 0,150,0
thread block = 0,151,0
thread block = 0,152,0
thread block = 0,153,0
thread block = 0,154,0
thread block = 0,155,0
thread block = 0,156,0
thread block = 0,157,0
thread block = 0,158,0
thread block = 0,159,0
thread block = 0,160,0
thread block = 0,161,0
thread block = 0,162,0
thread block = 0,163,0
thread block = 0,164,0
thread block = 0,165,0
thread block = 0,166,0
thread block = 0,167,0
thread block = 0,168,0
thread block = 0,169,0
thread block = 0,170,0
thread block = 0,171,0
thread block = 0,172,0
thread block = 0,173,0
thread block = 0,174,0
thread block = 0,175,0
thread block = 0,176,0
thread block = 0,177,0
thread block = 0,178,0
thread block = 0,179,0
thread block = 0,180,0
thread block = 0,181,0
thread block = 0,182,0
thread block = 0,183,0
thread block = 0,184,0
thread block = 0,185,0
thread block = 0,186,0
thread block = 0,187,0
thread block = 0,188,0
thread block = 0,189,0
thread block = 0,190,0
thread block = 0,191,0
thread block = 0,192,0
thread block = 0,193,0
thread block = 0,194,0
thread block = 0,195,0
thread block = 0,196,0
thread block = 0,197,0
thread block = 0,198,0
thread block = 0,199,0
thread block = 0,200,0
thread block = 0,201,0
thread block = 0,202,0
thread block = 0,203,0
thread block = 0,204,0
thread block = 0,205,0
thread block = 0,206,0
thread block = 0,207,0
thread block = 0,208,0
thread block = 0,209,0
thread block = 0,210,0
thread block = 0,211,0
thread block = 0,212,0
thread block = 0,213,0
thread block = 0,214,0
thread block = 0,215,0
thread block = 0,216,0
thread block = 0,217,0
thread block = 0,218,0
thread block = 0,219,0
thread block = 0,220,0
thread block = 0,221,0
thread block = 0,222,0
thread block = 0,223,0
thread block = 0,224,0
thread block = 0,225,0
thread block = 0,226,0
thread block = 0,227,0
thread block = 0,228,0
thread block = 0,229,0
thread block = 0,230,0
thread block = 0,231,0
thread block = 0,232,0
thread block = 0,233,0
thread block = 0,234,0
thread block = 0,235,0
thread block = 0,236,0
thread block = 0,237,0
thread block = 0,238,0
thread block = 0,239,0
thread block = 0,240,0
thread block = 0,241,0
thread block = 0,242,0
thread block = 0,243,0
thread block = 0,244,0
thread block = 0,245,0
thread block = 0,246,0
thread block = 0,247,0
thread block = 0,248,0
thread block = 0,249,0
thread block = 0,250,0
thread block = 0,251,0
thread block = 0,252,0
thread block = 0,253,0
thread block = 0,254,0
thread block = 0,255,0
Destroy streams for kernel 1: size 0
kernel_name = _Z22bpnn_layerforward_CUDAPfS_S_S_ii___0 
kernel_launch_uid = 1 
gpu_sim_cycle = 6810
gpu_sim_insn = 3305472 
gpu_ipc =     485.3850
gpu_tot_sim_cycle = 6810
gpu_tot_sim_insn = 3305472
gpu_tot_ipc =     485.3850
gpu_tot_issued_cta = 256
gpu_occupancy = 56.9176% 
gpu_tot_occupancy = 56.9176% 
gpu_tot_sms_occupancy = 94.9173%
max_total_param_size = 0
gpu_stall_dramfull = 104
gpu_stall_icnt2sh    = 0
partiton_level_parallism =       3.4385
partiton_level_parallism_total  =       3.4385
partiton_level_parallism_util =       9.4917
partiton_level_parallism_util_total  =       9.4917
L2_BW  =     334.7984 GB/Sec
L2_BW_total  =     334.7984 GB/Sec
gpu_total_sim_rate=1652736

========= Core cache stats =========
L0I_cache:
	L0I_total_cache_accesses = 152594
	L0I_total_cache_misses = 4480
	L0I_total_cache_miss_rate = 0.0294
	L0I_total_cache_pending_hits = 0
	L0I_total_cache_reservation_fails = 252968
L1I_cache:
	L1I_total_cache_accesses = 5180
	L1I_total_cache_misses = 5180
	L1I_total_cache_miss_rate = 1.0000
	L1I_total_cache_pending_hits = 0
	L1I_total_cache_reservation_fails = 0
L1D_cache:
	L1D_cache_core[0]: Access = 392, Miss = 160, Miss_rate = 0.408, Pending_hits = 48, Reservation_fails = 30
	L1D_cache_core[1]: Access = 392, Miss = 160, Miss_rate = 0.408, Pending_hits = 48, Reservation_fails = 0
	L1D_cache_core[2]: Access = 392, Miss = 160, Miss_rate = 0.408, Pending_hits = 48, Reservation_fails = 30
	L1D_cache_core[3]: Access = 392, Miss = 160, Miss_rate = 0.408, Pending_hits = 48, Reservation_fails = 28
	L1D_cache_core[4]: Access = 392, Miss = 160, Miss_rate = 0.408, Pending_hits = 48, Reservation_fails = 27
	L1D_cache_core[5]: Access = 392, Miss = 160, Miss_rate = 0.408, Pending_hits = 48, Reservation_fails = 27
	L1D_cache_core[6]: Access = 392, Miss = 160, Miss_rate = 0.408, Pending_hits = 48, Reservation_fails = 30
	L1D_cache_core[7]: Access = 392, Miss = 160, Miss_rate = 0.408, Pending_hits = 48, Reservation_fails = 46
	L1D_cache_core[8]: Access = 392, Miss = 160, Miss_rate = 0.408, Pending_hits = 48, Reservation_fails = 23
	L1D_cache_core[9]: Access = 392, Miss = 160, Miss_rate = 0.408, Pending_hits = 48, Reservation_fails = 33
	L1D_cache_core[10]: Access = 392, Miss = 160, Miss_rate = 0.408, Pending_hits = 48, Reservation_fails = 8
	L1D_cache_core[11]: Access = 392, Miss = 160, Miss_rate = 0.408, Pending_hits = 48, Reservation_fails = 71
	L1D_cache_core[12]: Access = 392, Miss = 160, Miss_rate = 0.408, Pending_hits = 48, Reservation_fails = 30
	L1D_cache_core[13]: Access = 392, Miss = 160, Miss_rate = 0.408, Pending_hits = 48, Reservation_fails = 7
	L1D_cache_core[14]: Access = 392, Miss = 160, Miss_rate = 0.408, Pending_hits = 48, Reservation_fails = 8
	L1D_cache_core[15]: Access = 392, Miss = 160, Miss_rate = 0.408, Pending_hits = 48, Reservation_fails = 49
	L1D_cache_core[16]: Access = 392, Miss = 160, Miss_rate = 0.408, Pending_hits = 48, Reservation_fails = 23
	L1D_cache_core[17]: Access = 392, Miss = 160, Miss_rate = 0.408, Pending_hits = 48, Reservation_fails = 33
	L1D_cache_core[18]: Access = 392, Miss = 160, Miss_rate = 0.408, Pending_hits = 48, Reservation_fails = 23
	L1D_cache_core[19]: Access = 392, Miss = 160, Miss_rate = 0.408, Pending_hits = 48, Reservation_fails = 31
	L1D_cache_core[20]: Access = 392, Miss = 160, Miss_rate = 0.408, Pending_hits = 48, Reservation_fails = 8
	L1D_cache_core[21]: Access = 392, Miss = 160, Miss_rate = 0.408, Pending_hits = 48, Reservation_fails = 63
	L1D_cache_core[22]: Access = 392, Miss = 160, Miss_rate = 0.408, Pending_hits = 48, Reservation_fails = 8
	L1D_cache_core[23]: Access = 392, Miss = 160, Miss_rate = 0.408, Pending_hits = 48, Reservation_fails = 62
	L1D_cache_core[24]: Access = 392, Miss = 160, Miss_rate = 0.408, Pending_hits = 48, Reservation_fails = 8
	L1D_cache_core[25]: Access = 392, Miss = 160, Miss_rate = 0.408, Pending_hits = 48, Reservation_fails = 81
	L1D_cache_core[26]: Access = 392, Miss = 160, Miss_rate = 0.408, Pending_hits = 48, Reservation_fails = 8
	L1D_cache_core[27]: Access = 392, Miss = 160, Miss_rate = 0.408, Pending_hits = 48, Reservation_fails = 81
	L1D_cache_core[28]: Access = 392, Miss = 160, Miss_rate = 0.408, Pending_hits = 48, Reservation_fails = 8
	L1D_cache_core[29]: Access = 392, Miss = 160, Miss_rate = 0.408, Pending_hits = 48, Reservation_fails = 81
	L1D_cache_core[30]: Access = 392, Miss = 160, Miss_rate = 0.408, Pending_hits = 48, Reservation_fails = 23
	L1D_cache_core[31]: Access = 392, Miss = 160, Miss_rate = 0.408, Pending_hits = 48, Reservation_fails = 45
	L1D_cache_core[32]: Access = 392, Miss = 160, Miss_rate = 0.408, Pending_hits = 48, Reservation_fails = 23
	L1D_cache_core[33]: Access = 392, Miss = 160, Miss_rate = 0.408, Pending_hits = 48, Reservation_fails = 45
	L1D_cache_core[34]: Access = 392, Miss = 160, Miss_rate = 0.408, Pending_hits = 48, Reservation_fails = 23
	L1D_cache_core[35]: Access = 392, Miss = 160, Miss_rate = 0.408, Pending_hits = 48, Reservation_fails = 37
	L1D_cache_core[36]: Access = 392, Miss = 160, Miss_rate = 0.408, Pending_hits = 48, Reservation_fails = 19
	L1D_cache_core[37]: Access = 392, Miss = 160, Miss_rate = 0.408, Pending_hits = 48, Reservation_fails = 39
	L1D_cache_core[38]: Access = 392, Miss = 160, Miss_rate = 0.408, Pending_hits = 48, Reservation_fails = 19
	L1D_cache_core[39]: Access = 392, Miss = 160, Miss_rate = 0.408, Pending_hits = 48, Reservation_fails = 62
[...]
L2_cache_bank[1]: Access = 458, Miss = 204, Miss_rate = 0.445, Pending_hits = 0, Reservation_fails = 0
L2_cache_bank[2]: Access = 416, Miss = 68, Miss_rate = 0.163, Pending_hits = 265, Reservation_fails = 0
L2_cache_bank[3]: Access = 433, Miss = 71, Miss_rate = 0.164, Pending_hits = 264, Reservation_fails = 0
L2_cache_bank[4]: Access = 1328, Miss = 592, Miss_rate = 0.446, Pending_hits = 16, Reservation_fails = 0
L2_cache_bank[5]: Access = 1312, Miss = 598, Miss_rate = 0.456, Pending_hits = 14, Reservation_fails = 0
L2_cache_bank[6]: Access = 0, Miss = 0, Miss_rate = -nan, Pending_hits = 0, Reservation_fails = 0
L2_cache_bank[7]: Access = 0, Miss = 0, Miss_rate = -nan, Pending_hits = 0, Reservation_fails = 0
L2_cache_bank[8]: Access = 443, Miss = 204, Miss_rate = 0.460, Pending_hits = 0, Reservation_fails = 0
L2_cache_bank[9]: Access = 459, Miss = 204, Miss_rate = 0.444, Pending_hits = 0, Reservation_fails = 0
L2_cache_bank[10]: Access = 416, Miss = 68, Miss_rate = 0.163, Pending_hits = 265, Reservation_fails = 0
L2_cache_bank[11]: Access = 426, Miss = 68, Miss_rate = 0.160, Pending_hits = 264, Reservation_fails = 0
L2_cache_bank[12]: Access = 1328, Miss = 592, Miss_rate = 0.446, Pending_hits = 15, Reservation_fails = 0
L2_cache_bank[13]: Access = 1298, Miss = 592, Miss_rate = 0.456, Pending_hits = 15, Reservation_fails = 0
L2_cache_bank[14]: Access = 0, Miss = 0, Miss_rate = -nan, Pending_hits = 0, Reservation_fails = 0
L2_cache_bank[15]: Access = 0, Miss = 0, Miss_rate = -nan, Pending_hits = 0, Reservation_fails = 0
L2_cache_bank[16]: Access = 444, Miss = 204, Miss_rate = 0.459, Pending_hits = 0, Reservation_fails = 0
L2_cache_bank[17]: Access = 455, Miss = 204, Miss_rate = 0.448, Pending_hits = 1, Reservation_fails = 0
L2_cache_bank[18]: Access = 138, Miss = 64, Miss_rate = 0.464, Pending_hits = 0, Reservation_fails = 0
L2_cache_bank[19]: Access = 144, Miss = 64, Miss_rate = 0.444, Pending_hits = 0, Reservation_fails = 0
L2_cache_bank[20]: Access = 1330, Miss = 304, Miss_rate = 0.229, Pending_hits = 16, Reservation_fails = 0
L2_cache_bank[21]: Access = 1298, Miss = 304, Miss_rate = 0.234, Pending_hits = 13, Reservation_fails = 0
L2_cache_bank[22]: Access = 0, Miss = 0, Miss_rate = -nan, Pending_hits = 0, Reservation_fails = 0
L2_cache_bank[23]: Access = 0, Miss = 0, Miss_rate = -nan, Pending_hits = 0, Reservation_fails = 0
L2_cache_bank[24]: Access = 445, Miss = 204, Miss_rate = 0.458, Pending_hits = 0, Reservation_fails = 0
L2_cache_bank[25]: Access = 456, Miss = 204, Miss_rate = 0.447, Pending_hits = 0, Reservation_fails = 0
L2_cache_bank[26]: Access = 142, Miss = 68, Miss_rate = 0.479, Pending_hits = 0, Reservation_fails = 0
L2_cache_bank[27]: Access = 148, Miss = 68, Miss_rate = 0.459, Pending_hits = 0, Reservation_fails = 0
L2_cache_bank[28]: Access = 1330, Miss = 304, Miss_rate = 0.229, Pending_hits = 16, Reservation_fails = 0
L2_cache_bank[29]: Access = 1294, Miss = 304, Miss_rate = 0.235, Pending_hits = 14, Reservation_fails = 0
L2_cache_bank[30]: Access = 0, Miss = 0, Miss_rate = -nan, Pending_hits = 0, Reservation_fails = 0
L2_cache_bank[31]: Access = 0, Miss = 0, Miss_rate = -nan, Pending_hits = 0, Reservation_fails = 0
L2_cache_bank[32]: Access = 440, Miss = 204, Miss_rate = 0.464, Pending_hits = 0, Reservation_fails = 0
L2_cache_bank[33]: Access = 458, Miss = 204, Miss_rate = 0.445, Pending_hits = 0, Reservation_fails = 0
L2_cache_bank[34]: Access = 144, Miss = 68, Miss_rate = 0.472, Pending_hits = 0, Reservation_fails = 0
L2_cache_bank[35]: Access = 147, Miss = 68, Miss_rate = 0.463, Pending_hits = 0, Reservation_fails = 0
L2_cache_bank[36]: Access = 1340, Miss = 308, Miss_rate = 0.230, Pending_hits = 16, Reservation_fails = 0
L2_cache_bank[37]: Access = 1324, Miss = 308, Miss_rate = 0.233, Pending_hits = 17, Reservation_fails = 0
L2_cache_bank[38]: Access = 0, Miss = 0, Miss_rate = -nan, Pending_hits = 0, Reservation_fails = 0
L2_cache_bank[39]: Access = 0, Miss = 0, Miss_rate = -nan, Pending_hits = 0, Reservation_fails = 0
L2_cache_bank[40]: Access = 440, Miss = 204, Miss_rate = 0.464, Pending_hits = 0, Reservation_fails = 0
L2_cache_bank[41]: Access = 460, Miss = 204, Miss_rate = 0.443, Pending_hits = 0, Reservation_fails = 0
L2_cache_bank[42]: Access = 144, Miss = 68, Miss_rate = 0.472, Pending_hits = 0, Reservation_fails = 0
L2_cache_bank[43]: Access = 146, Miss = 68, Miss_rate = 0.466, Pending_hits = 0, Reservation_fails = 0
L2_cache_bank[44]: Access = 1338, Miss = 308, Miss_rate = 0.230, Pending_hits = 16, Reservation_fails = 0
L2_cache_bank[45]: Access = 1320, Miss = 308, Miss_rate = 0.233, Pending_hits = 14, Reservation_fails = 0
L2_cache_bank[46]: Access = 0, Miss = 0, Miss_rate = -nan, Pending_hits = 0, Reservation_fails = 0
L2_cache_bank[47]: Access = 0, Miss = 0, Miss_rate = -nan, Pending_hits = 0, Reservation_fails = 0
L2_cache_bank[48]: Access = 437, Miss = 204, Miss_rate = 0.467, Pending_hits = 0, Reservation_fails = 0
L2_cache_bank[49]: Access = 671, Miss = 207, Miss_rate = 0.308, Pending_hits = 78, Reservation_fails = 0
L2_cache_bank[50]: Access = 141, Miss = 68, Miss_rate = 0.482, Pending_hits = 0, Reservation_fails = 0
L2_cache_bank[51]: Access = 150, Miss = 68, Miss_rate = 0.453, Pending_hits = 0, Reservation_fails = 0
L2_cache_bank[52]: Access = 1620, Miss = 312, Miss_rate = 0.193, Pending_hits = 79, Reservation_fails = 0
L2_cache_bank[53]: Access = 1602, Miss = 312, Miss_rate = 0.195, Pending_hits = 89, Reservation_fails = 0
L2_cache_bank[54]: Access = 0, Miss = 0, Miss_rate = -nan, Pending_hits = 0, Reservation_fails = 0
L2_cache_bank[55]: Access = 0, Miss = 0, Miss_rate = -nan, Pending_hits = 0, Reservation_fails = 0
L2_cache_bank[56]: Access = 440, Miss = 204, Miss_rate = 0.464, Pending_hits = 0, Reservation_fails = 0
L2_cache_bank[57]: Access = 462, Miss = 204, Miss_rate = 0.442, Pending_hits = 0, Reservation_fails = 0
L2_cache_bank[58]: Access = 417, Miss = 68, Miss_rate = 0.163, Pending_hits = 120, Reservation_fails = 0
L2_cache_bank[59]: Access = 424, Miss = 68, Miss_rate = 0.160, Pending_hits = 116, Reservation_fails = 0
L2_cache_bank[60]: Access = 1338, Miss = 308, Miss_rate = 0.230, Pending_hits = 15, Reservation_fails = 0
L2_cache_bank[61]: Access = 1318, Miss = 308, Miss_rate = 0.234, Pending_hits = 13, Reservation_fails = 0
L2_cache_bank[62]: Access = 0, Miss = 0, Miss_rate = -nan, Pending_hits = 0, Reservation_fails = 0
L2_cache_bank[63]: Access = 0, Miss = 0, Miss_rate = -nan, Pending_hits = 0, Reservation_fails = 0
L2_cache_bank[64]: Access = 466, Miss = 208, Miss_rate = 0.446, Pending_hits = 0, Reservation_fails = 0
L2_cache_bank[65]: Access = 451, Miss = 208, Miss_rate = 0.461, Pending_hits = 0, Reservation_fails = 0
L2_cache_bank[66]: Access = 716, Miss = 76, Miss_rate = 0.106, Pending_hits = 376, Reservation_fails = 0
L2_cache_bank[67]: Access = 705, Miss = 76, Miss_rate = 0.108, Pending_hits = 400, Reservation_fails = 0
L2_cache_bank[68]: Access = 1302, Miss = 304, Miss_rate = 0.233, Pending_hits = 16, Reservation_fails = 0
L2_cache_bank[69]: Access = 1315, Miss = 304, Miss_rate = 0.231, Pending_hits = 15, Reservation_fails = 0
L2_cache_bank[70]: Access = 0, Miss = 0, Miss_rate = -nan, Pending_hits = 0, Reservation_fails = 0
L2_cache_bank[71]: Access = 0, Miss = 0, Miss_rate = -nan, Pending_hits = 0, Reservation_fails = 0
L2_cache_bank[72]: Access = 746, Miss = 212, Miss_rate = 0.284, Pending_hits = 88, Reservation_fails = 0
L2_cache_bank[73]: Access = 732, Miss = 212, Miss_rate = 0.290, Pending_hits = 124, Reservation_fails = 0
L2_cache_bank[74]: Access = 716, Miss = 76, Miss_rate = 0.106, Pending_hits = 248, Reservation_fails = 0
L2_cache_bank[75]: Access = 704, Miss = 76, Miss_rate = 0.108, Pending_hits = 464, Reservation_fails = 0
L2_cache_bank[76]: Access = 1298, Miss = 304, Miss_rate = 0.234, Pending_hits = 15, Reservation_fails = 0
L2_cache_bank[77]: Access = 1324, Miss = 304, Miss_rate = 0.230, Pending_hits = 16, Reservation_fails = 0
L2_cache_bank[78]: Access = 0, Miss = 0, Miss_rate = -nan, Pending_hits = 0, Reservation_fails = 0
L2_cache_bank[79]: Access = 0, Miss = 0, Miss_rate = -nan, Pending_hits = 0, Reservation_fails = 0
L2_cache_bank[80]: Access = 746, Miss = 212, Miss_rate = 0.284, Pending_hits = 136, Reservation_fails = 0
L2_cache_bank[81]: Access = 733, Miss = 212, Miss_rate = 0.289, Pending_hits = 158, Reservation_fails = 0
L2_cache_bank[82]: Access = 714, Miss = 76, Miss_rate = 0.106, Pending_hits = 496, Reservation_fails = 0
L2_cache_bank[83]: Access = 706, Miss = 76, Miss_rate = 0.108, Pending_hits = 532, Reservation_fails = 0
L2_cache_bank[84]: Access = 1300, Miss = 304, Miss_rate = 0.234, Pending_hits = 15, Reservation_fails = 0
L2_cache_bank[85]: Access = 1324, Miss = 304, Miss_rate = 0.230, Pending_hits = 15, Reservation_fails = 0
L2_cache_bank[86]: Access = 0, Miss = 0, Miss_rate = -nan, Pending_hits = 0, Reservation_fails = 0
L2_cache_bank[87]: Access = 0, Miss = 0, Miss_rate = -nan, Pending_hits = 0, Reservation_fails = 0
L2_cache_bank[88]: Access = 744, Miss = 212, Miss_rate = 0.285, Pending_hits = 207, Reservation_fails = 0
L2_cache_bank[89]: Access = 733, Miss = 212, Miss_rate = 0.289, Pending_hits = 268, Reservation_fails = 0
L2_cache_bank[90]: Access = 713, Miss = 76, Miss_rate = 0.107, Pending_hits = 523, Reservation_fails = 0
L2_cache_bank[91]: Access = 706, Miss = 76, Miss_rate = 0.108, Pending_hits = 540, Reservation_fails = 0
L2_cache_bank[92]: Access = 1298, Miss = 304, Miss_rate = 0.234, Pending_hits = 16, Reservation_fails = 0
L2_cache_bank[93]: Access = 1324, Miss = 304, Miss_rate = 0.230, Pending_hits = 16, Reservation_fails = 0
L2_cache_bank[94]: Access = 0, Miss = 0, Miss_rate = -nan, Pending_hits = 0, Reservation_fails = 0
L2_cache_bank[95]: Access = 0, Miss = 0, Miss_rate = -nan, Pending_hits = 0, Reservation_fails = 0
L2_cache_bank[96]: Access = 469, Miss = 208, Miss_rate = 0.443, Pending_hits = 0, Reservation_fails = 0
L2_cache_bank[97]: Access = 450, Miss = 208, Miss_rate = 0.462, Pending_hits = 0, Reservation_fails = 0
L2_cache_bank[98]: Access = 711, Miss = 76, Miss_rate = 0.107, Pending_hits = 268, Reservation_fails = 0
L2_cache_bank[99]: Access = 711, Miss = 76, Miss_rate = 0.107, Pending_hits = 337, Reservation_fails = 0
L2_cache_bank[100]: Access = 1286, Miss = 300, Miss_rate = 0.233, Pending_hits = 16, Reservation_fails = 0
L2_cache_bank[101]: Access = 1298, Miss = 301, Miss_rate = 0.232, Pending_hits = 14, Reservation_fails = 0
L2_cache_bank[102]: Access = 0, Miss = 0, Miss_rate = -nan, Pending_hits = 0, Reservation_fails = 0
L2_cache_bank[103]: Access = 0, Miss = 0, Miss_rate = -nan, Pending_hits = 0, Reservation_fails = 0
L2_cache_bank[104]: Access = 467, Miss = 208, Miss_rate = 0.445, Pending_hits = 0, Reservation_fails = 0
L2_cache_bank[105]: Access = 450, Miss = 208, Miss_rate = 0.462, Pending_hits = 0, Reservation_fails = 0
L2_cache_bank[106]: Access = 710, Miss = 76, Miss_rate = 0.107, Pending_hits = 336, Reservation_fails = 0
L2_cache_bank[107]: Access = 709, Miss = 76, Miss_rate = 0.107, Pending_hits = 524, Reservation_fails = 0
L2_cache_bank[108]: Access = 1286, Miss = 300, Miss_rate = 0.233, Pending_hits = 15, Reservation_fails = 0
L2_cache_bank[109]: Access = 1300, Miss = 300, Miss_rate = 0.231, Pending_hits = 16, Reservation_fails = 0
L2_cache_bank[110]: Access = 0, Miss = 0, Miss_rate = -nan, Pending_hits = 0, Reservation_fails = 0
L2_cache_bank[111]: Access = 0, Miss = 0, Miss_rate = -nan, Pending_hits = 0, Reservation_fails = 0
L2_cache_bank[112]: Access = 468, Miss = 208, Miss_rate = 0.444, Pending_hits = 1, Reservation_fails = 0
L2_cache_bank[113]: Access = 449, Miss = 208, Miss_rate = 0.463, Pending_hits = 0, Reservation_fails = 0
L2_cache_bank[114]: Access = 433, Miss = 72, Miss_rate = 0.166, Pending_hits = 264, Reservation_fails = 0
L2_cache_bank[115]: Access = 427, Miss = 72, Miss_rate = 0.169, Pending_hits = 265, Reservation_fails = 0
L2_cache_bank[116]: Access = 1286, Miss = 300, Miss_rate = 0.233, Pending_hits = 16, Reservation_fails = 0
L2_cache_bank[117]: Access = 1300, Miss = 300, Miss_rate = 0.231, Pending_hits = 16, Reservation_fails = 0
L2_cache_bank[118]: Access = 0, Miss = 0, Miss_rate = -nan, Pending_hits = 0, Reservation_fails = 0
L2_cache_bank[119]: Access = 0, Miss = 0, Miss_rate = -nan, Pending_hits = 0, Reservation_fails = 0
L2_cache_bank[120]: Access = 468, Miss = 208, Miss_rate = 0.444, Pending_hits = 0, Reservation_fails = 0
L2_cache_bank[121]: Access = 449, Miss = 208, Miss_rate = 0.463, Pending_hits = 0, Reservation_fails = 0
L2_cache_bank[122]: Access = 432, Miss = 72, Miss_rate = 0.167, Pending_hits = 264, Reservation_fails = 0
L2_cache_bank[123]: Access = 427, Miss = 72, Miss_rate = 0.169, Pending_hits = 264, Reservation_fails = 0
L2_cache_bank[124]: Access = 1288, Miss = 300, Miss_rate = 0.233, Pending_hits = 16, Reservation_fails = 0
L2_cache_bank[125]: Access = 1302, Miss = 300, Miss_rate = 0.230, Pending_hits = 16, Reservation_fails = 0
L2_cache_bank[126]: Access = 0, Miss = 0, Miss_rate = -nan, Pending_hits = 0, Reservation_fails = 0
L2_cache_bank[127]: Access = 0, Miss = 0, Miss_rate = -nan, Pending_hits = 0, Reservation_fails = 0
L2_total_cache_accesses = 73196
L2_total_cache_misses = 19797
L2_total_cache_miss_rate = 0.2705
L2_total_cache_pending_hits = 9083
L2_total_cache_reservation_fails = 0
L2_total_cache_breakdown:
	L2_cache_stats_breakdown[GLOBAL_ACC_R][HIT] = 8975
	L2_cache_stats_breakdown[GLOBAL_ACC_R][HIT_RESERVED] = 570
	L2_cache_stats_breakdown[GLOBAL_ACC_R][MISS] = 4773
	L2_cache_stats_breakdown[GLOBAL_ACC_R][RESERVATION_FAIL] = 0
	L2_cache_stats_breakdown[GLOBAL_ACC_R][SECTOR_MISS] = 14312
	L2_cache_stats_breakdown[GLOBAL_ACC_R][MSHR_HIT] = 570
	L2_cache_stats_breakdown[LOCAL_ACC_R][HIT] = 0
	L2_cache_stats_breakdown[LOCAL_ACC_R][HIT_RESERVED] = 0
	L2_cache_stats_breakdown[LOCAL_ACC_R][MISS] = 0
	L2_cache_stats_breakdown[LOCAL_ACC_R][RESERVATION_FAIL] = 0
	L2_cache_stats_breakdown[LOCAL_ACC_R][SECTOR_MISS] = 0
	L2_cache_stats_breakdown[LOCAL_ACC_R][MSHR_HIT] = 0
	L2_cache_stats_breakdown[CONST_ACC_R][HIT] = 412
	L2_cache_stats_breakdown[CONST_ACC_R][HIT_RESERVED] = 140
	L2_cache_stats_breakdown[CONST_ACC_R][MISS] = 2
	L2_cache_stats_breakdown[CONST_ACC_R][RESERVATION_FAIL] = 0
	L2_cache_stats_breakdown[CONST_ACC_R][SECTOR_MISS] = 6
	L2_cache_stats_breakdown[CONST_ACC_R][MSHR_HIT] = 140
	L2_cache_stats_breakdown[TEXTURE_ACC_R][HIT] = 0
	L2_cache_stats_breakdown[TEXTURE_ACC_R][HIT_RESERVED] = 0
	L2_cache_stats_breakdown[TEXTURE_ACC_R][MISS] = 0
	L2_cache_stats_breakdown[TEXTURE_ACC_R][RESERVATION_FAIL] = 0
	L2_cache_stats_breakdown[TEXTURE_ACC_R][SECTOR_MISS] = 0
	L2_cache_stats_breakdown[TEXTURE_ACC_R][MSHR_HIT] = 0
	L2_cache_stats_breakdown[GLOBAL_ACC_W][HIT] = 32262
	L2_cache_stats_breakdown[GLOBAL_ACC_W][HIT_RESERVED] = 0
	L2_cache_stats_breakdown[GLOBAL_ACC_W][MISS] = 128
	L2_cache_stats_breakdown[GLOBAL_ACC_W][RESERVATION_FAIL] = 0
	L2_cache_stats_breakdown[GLOBAL_ACC_W][SECTOR_MISS] = 384
	L2_cache_stats_breakdown[GLOBAL_ACC_W][MSHR_HIT] = 0
	L2_cache_stats_breakdown[LOCAL_ACC_W][HIT] = 0
	L2_cache_stats_breakdown[LOCAL_ACC_W][HIT_RESERVED] = 0
	L2_cache_stats_breakdown[LOCAL_ACC_W][MISS] = 0
	L2_cache_stats_breakdown[LOCAL_ACC_W][RESERVATION_FAIL] = 0
	L2_cache_stats_breakdown[LOCAL_ACC_W][SECTOR_MISS] = 0
	L2_cache_stats_breakdown[LOCAL_ACC_W][MSHR_HIT] = 0
	L2_cache_stats_breakdown[L1_WRBK_ACC][HIT] = 0
	L2_cache_stats_breakdown[L1_WRBK_ACC][HIT_RESERVED] = 0
	L2_cache_stats_breakdown[L1_WRBK_ACC][MISS] = 0
	L2_cache_stats_breakdown[L1_WRBK_ACC][RESERVATION_FAIL] = 0
	L2_cache_stats_breakdown[L1_WRBK_ACC][SECTOR_MISS] = 0
	L2_cache_stats_breakdown[L1_WRBK_ACC][MSHR_HIT] = 0
	L2_cache_stats_breakdown[L2_WRBK_ACC][HIT] = 0
	L2_cache_stats_breakdown[L2_WRBK_ACC][HIT_RESERVED] = 0
	L2_cache_stats_breakdown[L2_WRBK_ACC][MISS] = 0
	L2_cache_stats_breakdown[L2_WRBK_ACC][RESERVATION_FAIL] = 0
	L2_cache_stats_breakdown[L2_WRBK_ACC][SECTOR_MISS] = 0
	L2_cache_stats_breakdown[L2_WRBK_ACC][MSHR_HIT] = 0
	L2_cache_stats_breakdown[INST_ACC_R][HIT] = 2667
	L2_cache_stats_breakdown[INST_ACC_R][HIT_RESERVED] = 8373
	L2_cache_stats_breakdown[INST_ACC_R][MISS] = 48
	L2_cache_stats_breakdown[INST_ACC_R][RESERVATION_FAIL] = 0
	L2_cache_stats_breakdown[INST_ACC_R][SECTOR_MISS] = 144
	L2_cache_stats_breakdown[INST_ACC_R][MSHR_HIT] = 8373
	L2_cache_stats_breakdown[L1_WR_ALLOC_R][HIT] = 0
	L2_cache_stats_breakdown[L1_WR_ALLOC_R][HIT_RESERVED] = 0
	L2_cache_stats_breakdown[L1_WR_ALLOC_R][MISS] = 0
	L2_cache_stats_breakdown[L1_WR_ALLOC_R][RESERVATION_FAIL] = 0
	L2_cache_stats_breakdown[L1_WR_ALLOC_R][SECTOR_MISS] = 0
	L2_cache_stats_breakdown[L1_WR_ALLOC_R][MSHR_HIT] = 0
	L2_cache_stats_breakdown[L2_WR_ALLOC_R][HIT] = 0
	L2_cache_stats_breakdown[L2_WR_ALLOC_R][HIT_RESERVED] = 0
	L2_cache_stats_breakdown[L2_WR_ALLOC_R][MISS] = 0
	L2_cache_stats_breakdown[L2_WR_ALLOC_R][RESERVATION_FAIL] = 0
	L2_cache_stats_breakdown[L2_WR_ALLOC_R][SECTOR_MISS] = 0
	L2_cache_stats_breakdown[L2_WR_ALLOC_R][MSHR_HIT] = 0
	L2_cache_stats_breakdown[GRID_BARRIER_ACC][HIT] = 0
	L2_cache_stats_breakdown[GRID_BARRIER_ACC][HIT_RESERVED] = 0
	L2_cache_stats_breakdown[GRID_BARRIER_ACC][MISS] = 0
	L2_cache_stats_breakdown[GRID_BARRIER_ACC][RESERVATION_FAIL] = 0
	L2_cache_stats_breakdown[GRID_BARRIER_ACC][SECTOR_MISS] = 0
	L2_cache_stats_breakdown[GRID_BARRIER_ACC][MSHR_HIT] = 0
	L2_cache_stats_breakdown[TLB_MISS_ACC_DATA][HIT] = 0
	L2_cache_stats_breakdown[TLB_MISS_ACC_DATA][HIT_RESERVED] = 0
	L2_cache_stats_breakdown[TLB_MISS_ACC_DATA][MISS] = 0
	L2_cache_stats_breakdown[TLB_MISS_ACC_DATA][RESERVATION_FAIL] = 0
	L2_cache_stats_breakdown[TLB_MISS_ACC_DATA][SECTOR_MISS] = 0
	L2_cache_stats_breakdown[TLB_MISS_ACC_DATA][MSHR_HIT] = 0
	L2_cache_stats_breakdown[TLB_MISS_ACC_INST][HIT] = 0
	L2_cache_stats_breakdown[TLB_MISS_ACC_INST][HIT_RESERVED] = 0
	L2_cache_stats_breakdown[TLB_MISS_ACC_INST][MISS] = 0
	L2_cache_stats_breakdown[TLB_MISS_ACC_INST][RESERVATION_FAIL] = 0
	L2_cache_stats_breakdown[TLB_MISS_ACC_INST][SECTOR_MISS] = 0
	L2_cache_stats_breakdown[TLB_MISS_ACC_INST][MSHR_HIT] = 0
	L2_cache_stats_breakdown[GLOBAL_ACC_R][TOTAL_ACCESS] = 28630
	L2_cache_stats_breakdown[CONST_ACC_R][TOTAL_ACCESS] = 560
	L2_cache_stats_breakdown[GLOBAL_ACC_W][TOTAL_ACCESS] = 32774
	L2_cache_stats_breakdown[INST_ACC_R][TOTAL_ACCESS] = 11232
L2_total_cache_reservation_fail_breakdown:
L2_cache_data_port_util = 0.017
L2_cache_fill_port_util = 0.008

icnt_total_pkts_mem_to_simt=73184
icnt_total_pkts_simt_to_mem=64353
LD_mem_lat_dist  0 0 0 0 0 0 0 0 0 0 0 0 0 0 0 0 0 0 0 0 0 0 0 0 0 0 0 0
ST_mem_lat_dist  0 0 0 0 0 0 0 0 0 0 0 0 0 0 0 0 0 0 0 0 0 0 0 0 0 0 0 0
----------------------------Interconnect-DETAILS--------------------------------
Req_Network_injected_packets_num = 64353
Req_Network_cycles = 20010
Req_Network_injected_packets_per_cycle =       3.2160 
Req_Network_conflicts_per_cycle =       2.0283
Req_Network_conflicts_per_cycle_util =       3.9512
Req_Bank_Level_Parallism =       6.2649
Req_Network_in_buffer_full_per_cycle =       0.0000
Req_Network_in_buffer_avg_util =       1.0924
Req_Network_out_buffer_full_per_cycle =       0.0000
Req_Network_out_buffer_avg_util =       0.0305

Reply_Network_injected_packets_num = 100800
Reply_Network_cycles = 20010
Reply_Network_injected_packets_per_cycle =        5.0375
Reply_Network_conflicts_per_cycle =        0.3750
Reply_Network_conflicts_per_cycle_util =       0.6606
Reply_Bank_Level_Parallism =       6.4428
Reply_Network_in_buffer_full_per_cycle =       0.0000
Reply_Network_in_buffer_avg_util =       0.0673
Reply_Network_out_buffer_full_per_cycle =       0.0000
Reply_Network_out_buffer_avg_util =       0.0522
----------------------------END-of-Interconnect-DETAILS-------------------------


gpgpu_simulation_time = 0 days, 0 hrs, 0 min, 7 sec (7 sec)
gpgpu_simulation_rate = 1483488 (inst/sec)
gpgpu_simulation_rate = 2858 (cycle/sec)
gpgpu_silicon_slowdown = 902729x
GPGPU-Sim: *** simulation thread exiting ***
GPGPU-Sim: *** exit detected ***
